data_15.4.2016_4.24.37_1.4_0.2_5-5

_audit_creation_method RASPA-1.0
_audit_creation_date 2016-4-15
_audit_author_name 'Alec Kaija'

_cell_length_a    35.8727
_cell_length_b    19.4315
_cell_length_c    50.7987
_cell_angle_alpha 90
_cell_angle_beta  90
_cell_angle_gamma 90
_cell_volume      35409.8

_symmetry_cell_setting          triclinic
_symmetry_space_group_name_Hall 'P 1'
_symmetry_space_group_name_H-M  'P 1'
_symmetry_Int_Tables_number     1

_symmetry_equiv_pos_as_xyz 'x,y,z'

loop_
_atom_site_label
_atom_site_type_symbol
_atom_site_fract_x
_atom_site_fract_y
_atom_site_fract_z
_atom_site_charge
A_0      C      0.847900000000     0.051300000000     0.612900000000     0          
A_0      C      0.253700000000     0.101700000000     0.757800000000     0          
A_0      C      0.341900000000     0.849300000000     0.937900000000     0          
A_0      C      0.883700000000     0.893600000000     0.205700000000     0          
A_0      C      0.482900000000     0.389700000000     0.382100000000     0          
A_0      C      0.286600000000     0.092500000000     0.471500000000     0          
A_0      C      0.662000000000     0.207900000000     0.351600000000     0          
A_0      C      0.494700000000     0.312100000000     0.531700000000     0          
A_0      C      0.692500000000     0.218000000000     0.894400000000     0          
A_0      C      0.689600000000     0.376600000000     0.342000000000     0          
A_0      C      0.548400000000     0.019300000000     0.436600000000     0          
A_0      C      0.506900000000     0.104500000000     0.749300000000     0          
A_0      C      0.433100000000     0.472700000000     0.816500000000     0          
A_0      C      0.312600000000     0.673700000000     0.888000000000     0          
A_0      C      0.997700000000     0.319800000000     0.176400000000     0          
A_0      C      0.027100000000     0.082100000000     0.209500000000     0          
A_0      C      0.067300000000     0.441700000000     0.913400000000     0          
A_0      C      0.465100000000     0.645800000000     0.945300000000     0          
A_0      C      0.324200000000     0.416800000000     0.947500000000     0          
A_0      C      0.053700000000     0.665800000000     0.087400000000     0          
A_0      C      0.614800000000     0.405800000000     0.830900000000     0          
A_0      C      0.826800000000     0.646200000000     0.548300000000     0          
A_0      C      0.455900000000     0.151500000000     0.138500000000     0          
A_0      C      0.166500000000     0.314200000000     0.595500000000     0          
A_0      C      0.738400000000     0.055400000000     0.332000000000     0          
A_0      C      0.319600000000     0.302400000000     0.230100000000     0          
A_0      C      0.164000000000     0.718200000000     0.236900000000     0          
A_0      C      0.118600000000     0.666100000000     0.887900000000     0          
A_0      C      0.128700000000     0.365800000000     0.579700000000     0          
A_0      C      0.094400000000     0.254700000000     0.639800000000     0          
A_0      C      0.799600000000     0.339200000000     0.100300000000     0          
A_0      C      0.765300000000     0.298800000000     0.498300000000     0          
A_0      C      0.633700000000     0.697700000000     0.240900000000     0          
A_0      C      0.720400000000     0.250100000000     0.975100000000     0          
A_0      C      0.257300000000     0.063900000000     0.203700000000     0          
A_0      C      0.669500000000     0.809000000000     0.548800000000     0          
A_0      C      0.066200000000     0.122300000000     0.673700000000     0          
A_0      C      0.473100000000     0.383800000000     0.887100000000     0          
A_0      C      0.988000000000     0.975000000000     0.049800000000     0          
A_0      C      0.599800000000     0.284800000000     0.232800000000     0          
A_0      C      0.140000000000     0.899400000000     0.178700000000     0          
A_0      C      0.136900000000     0.057400000000     0.951500000000     0          
A_0      C      0.637100000000     0.835700000000     0.872800000000     0          
A_0      C      0.162800000000     0.077000000000     0.357300000000     0          
A_0      C      0.848700000000     0.298200000000     0.414500000000     0          
A_0      C      0.776600000000     0.389000000000     0.314900000000     0          
A_0      C      0.052800000000     0.143900000000     0.526000000000     0          
A_0      C      0.205900000000     0.438500000000     0.660500000000     0          
A_0      C      0.266500000000     0.262000000000     0.817800000000     0          
A_0      C      0.866600000000     0.709100000000     0.610600000000     0          
A_0      C      0.251400000000     0.179900000000     0.172900000000     0          
A_0      C      0.704200000000     0.526600000000     0.039000000000     0          
A_0      C      0.596300000000     0.995400000000     0.703900000000     0          
A_0      C      0.988900000000     0.964000000000     0.908400000000     0          
A_0      C      0.106000000000     0.796700000000     0.587500000000     0          
A_0      C      0.230100000000     0.922600000000     0.053900000000     0          
A_0      C      0.710700000000     0.863900000000     0.458300000000     0          
A_0      C      0.053200000000     0.094400000000     0.722200000000     0          
A_0      C      0.124900000000     0.800200000000     0.102600000000     0          
A_0      C      0.515500000000     0.500000000000     0.256000000000     0          
A_0      C      0.634600000000     0.550000000000     0.619900000000     0          
A_0      C      0.825200000000     0.084100000000     0.046500000000     0          
A_0      C      0.070800000000     0.426400000000     0.711800000000     0          
A_0      C      0.831200000000     0.377000000000     0.858400000000     0          
A_0      C      0.357300000000     0.563200000000     0.592000000000     0          
A_0      C      0.202900000000     0.843700000000     0.151500000000     0          
A_0      C      0.564100000000     0.423200000000     0.501900000000     0          
A_0      C      0.393400000000     0.011300000000     0.476100000000     0          
A_0      C      0.012800000000     0.263800000000     0.990200000000     0          
A_0      C      0.354600000000     0.174400000000     0.798700000000     0          
A_0      C      0.987200000000     0.330200000000     0.458400000000     0          
A_0      C      0.224300000000     0.985400000000     0.574100000000     0          
A_0      C      0.975700000000     0.936800000000     0.039700000000     0          
A_0      C      0.434200000000     0.870200000000     0.354100000000     0          
A_0      C      0.638500000000     0.929200000000     0.965900000000     0          
A_0      C      0.282300000000     0.904500000000     0.981600000000     0          
A_0      C      0.907000000000     0.782100000000     0.367800000000     0          
A_0      C      0.751200000000     0.173500000000     0.529100000000     0          
A_0      C      0.116300000000     0.110500000000     0.922600000000     0          
A_0      C      0.009200000000     0.310700000000     0.129600000000     0          
A_0      C      0.035600000000     0.034700000000     0.066100000000     0          
A_0      C      0.866400000000     0.903800000000     0.982900000000     0          
A_0      C      0.232900000000     0.435100000000     0.498700000000     0          
A_0      C      0.289400000000     0.263000000000     0.363300000000     0          
A_0      C      0.163400000000     0.519500000000     0.238900000000     0          
A_0      C      0.397000000000     0.606900000000     0.826200000000     0          
A_0      C      0.131600000000     0.375600000000     0.276900000000     0          
A_0      C      0.137500000000     0.646200000000     0.800000000000     0          
A_0      C      0.936200000000     0.479700000000     0.543900000000     0          
A_0      C      0.431600000000     0.668900000000     0.781300000000     0          
A_0      C      0.720000000000     0.731500000000     0.457000000000     0          
A_0      C      0.152100000000     0.762000000000     0.154400000000     0          
A_0      C      0.244900000000     0.882000000000     0.269600000000     0          
A_0      C      0.501500000000     0.846600000000     0.025600000000     0          
A_0      C      0.513200000000     0.251000000000     0.915500000000     0          
A_0      C      0.830000000000     0.867400000000     0.705600000000     0          
A_0      C      0.533700000000     0.416800000000     0.247300000000     0          
A_0      C      0.998800000000     0.203500000000     0.629400000000     0          
A_0      C      0.271300000000     0.837700000000     0.464300000000     0          
A_0      C      0.476800000000     0.501100000000     0.161400000000     0          
A_0      C      0.754400000000     0.324000000000     0.660200000000     0          
A_0      C      0.878500000000     0.004200000000     0.100800000000     0          
A_0      C      0.586700000000     0.121700000000     0.307800000000     0          
A_0      C      0.868600000000     0.007500000000     0.231600000000     0          
A_0      C      0.922200000000     0.687300000000     0.689500000000     0          
A_0      C      0.537000000000     0.482600000000     0.905600000000     0          
A_0      C      0.527900000000     0.517900000000     0.139300000000     0          
A_0      C      0.234300000000     0.540300000000     0.616000000000     0          
A_0      C      0.890000000000     0.791500000000     0.131400000000     0          
A_0      C      0.749800000000     0.678200000000     0.174500000000     0          
A_0      C      0.833800000000     0.535600000000     0.262200000000     0          
A_0      C      0.378600000000     0.994400000000     0.265900000000     0          
A_0      C      0.968300000000     0.430800000000     0.150600000000     0          
A_0      C      0.067500000000     0.916600000000     0.966800000000     0          
A_0      C      0.092900000000     0.709400000000     0.735900000000     0          
A_0      C      0.098600000000     0.336300000000     0.156500000000     0          
A_0      C      0.498800000000     0.561900000000     0.466800000000     0          
A_0      C      0.198300000000     0.737100000000     0.860700000000     0          
A_0      C      0.751500000000     0.960200000000     0.079300000000     0          
A_0      C      0.222500000000     0.709100000000     0.284100000000     0          
A_0      C      0.708300000000     0.191900000000     0.052200000000     0          
A_0      C      0.975500000000     0.877800000000     0.907000000000     0          
A_0      C      0.022900000000     0.002000000000     0.509600000000     0          
A_0      C      0.704100000000     0.319800000000     0.654000000000     0          
A_0      C      0.648800000000     0.807100000000     0.317600000000     0          
A_0      C      0.412100000000     0.992400000000     0.915700000000     0          
A_0      C      0.890300000000     0.752400000000     0.483700000000     0          
A_0      C      0.123600000000     0.869200000000     0.818800000000     0          
A_0      C      0.284400000000     0.023300000000     0.248700000000     0          
A_0      C      0.827500000000     0.428500000000     0.968000000000     0          
A_0      C      0.435700000000     0.385800000000     0.585100000000     0          
A_0      C      0.571200000000     0.976200000000     0.462300000000     0          
A_0      C      0.203600000000     0.570100000000     0.245000000000     0          
A_0      C      0.087200000000     0.853400000000     0.740600000000     0          
A_0      C      0.433200000000     0.867200000000     0.196800000000     0          
A_0      C      0.324000000000     0.164300000000     0.195400000000     0          
A_0      C      0.694400000000     0.892200000000     0.433100000000     0          
A_0      C      0.400100000000     0.525700000000     0.300300000000     0          
A_0      C      0.391600000000     0.868000000000     0.825300000000     0          
A_0      C      0.869300000000     0.675500000000     0.246100000000     0          
A_0      C      0.477500000000     0.894100000000     0.832800000000     0          
A_0      C      0.949800000000     0.648200000000     0.907300000000     0          
A_0      C      0.234100000000     0.686000000000     0.873500000000     0          
A_0      C      0.328000000000     0.728000000000     0.893900000000     0          
A_0      C      0.894300000000     0.776100000000     0.580000000000     0          
A_0      C      0.188000000000     0.296900000000     0.989000000000     0          
A_0      C      0.698800000000     0.861700000000     0.800300000000     0          
A_0      C      0.574100000000     0.390100000000     0.743600000000     0          
A_0      C      0.468000000000     0.027500000000     0.187800000000     0          
A_0      C      0.819000000000     0.192900000000     0.932700000000     0          
A_0      C      0.993700000000     0.142800000000     0.475900000000     0          
A_0      C      0.716900000000     0.719500000000     0.462300000000     0          
A_0      C      0.777300000000     0.878200000000     0.831100000000     0          
A_0      C      0.755300000000     0.041000000000     0.762600000000     0          
A_0      C      0.440200000000     0.787800000000     0.428100000000     0          
A_0      C      0.740000000000     0.782200000000     0.783100000000     0          
A_0      C      0.097500000000     0.507700000000     0.274000000000     0          
A_0      C      0.180400000000     0.304400000000     0.528700000000     0          
A_0      C      0.333200000000     0.900900000000     0.970100000000     0          
A_0      C      0.191400000000     0.374900000000     0.864000000000     0          
A_0      C      0.348700000000     0.273800000000     0.071900000000     0          
A_0      C      0.362600000000     0.875500000000     0.230300000000     0          
A_0      C      0.679600000000     0.397300000000     0.251400000000     0          
A_0      C      0.135500000000     0.673700000000     0.783900000000     0          
A_0      C      0.661600000000     0.630700000000     0.041800000000     0          
A_0      C      0.478100000000     0.378700000000     0.508100000000     0          
A_0      C      0.089200000000     0.237600000000     0.282500000000     0          
A_0      C      0.487200000000     0.557300000000     0.477400000000     0          
A_0      C      0.749300000000     0.843800000000     0.728200000000     0          
A_0      C      0.643700000000     0.024300000000     0.707600000000     0          
A_0      C      0.576300000000     0.258500000000     0.212400000000     0          
A_0      C      0.706700000000     0.378700000000     0.952100000000     0          
A_0      C      0.906800000000     0.794700000000     0.436000000000     0          
A_0      C      0.762100000000     0.406600000000     0.628700000000     0          
A_0      C      0.989000000000     0.884100000000     0.263700000000     0          
A_0      C      0.998000000000     0.095000000000     0.079600000000     0          
A_0      C      0.352600000000     0.040800000000     0.485800000000     0          
A_0      C      0.018000000000     0.025600000000     0.159700000000     0          
A_0      C      0.032700000000     0.660100000000     0.593400000000     0          
A_0      C      0.982400000000     0.822000000000     0.327400000000     0          
A_0      C      0.342600000000     0.461100000000     0.572800000000     0          
A_0      C      0.889900000000     0.006300000000     0.919500000000     0          
A_0      C      0.894300000000     0.104800000000     0.664500000000     0          
A_0      C      0.600200000000     0.108000000000     0.596700000000     0          
A_0      C      0.552100000000     0.050700000000     0.821100000000     0          
A_0      C      0.265500000000     0.653900000000     0.859800000000     0          
A_0      C      0.830300000000     0.255200000000     0.834000000000     0          
A_0      C      0.738700000000     0.446000000000     0.540800000000     0          
A_0      C      0.121100000000     0.861500000000     0.198500000000     0          
A_0      C      0.863100000000     0.553600000000     0.013900000000     0          
A_0      C      0.660700000000     0.091000000000     0.603600000000     0          
A_0      C      0.609200000000     0.749000000000     0.072200000000     0          
A_0      C      0.258100000000     0.675900000000     0.772400000000     0          
A_0      C      0.432800000000     0.701600000000     0.758100000000     0          
A_0      C      0.125800000000     0.696200000000     0.546500000000     0          
A_0      C      0.188900000000     0.527800000000     0.399900000000     0          
A_0      C      0.864600000000     0.602700000000     0.565300000000     0          
A_0      C      0.133600000000     0.037000000000     0.687500000000     0          
A_0      C      0.495500000000     0.672500000000     0.532800000000     0          
A_0      C      0.037400000000     0.603300000000     0.673300000000     0          
A_0      C      0.792400000000     0.574200000000     0.871300000000     0          
A_0      C      0.027000000000     0.670100000000     0.375400000000     0          
A_0      C      0.699800000000     0.087300000000     0.083900000000     0          
A_0      C      0.142900000000     0.068900000000     0.274400000000     0          
A_0      C      0.884500000000     0.136200000000     0.903300000000     0          
A_0      C      0.985100000000     0.125200000000     0.780000000000     0          
A_0      C      0.038300000000     0.253600000000     0.911900000000     0          
A_0      C      0.152900000000     0.847100000000     0.957600000000     0          
A_0      C      0.646600000000     0.815300000000     0.102400000000     0          
A_0      C      0.567000000000     0.823900000000     0.463300000000     0          
A_0      C      0.036100000000     0.113300000000     0.759400000000     0          
A_0      C      0.085100000000     0.554800000000     0.384300000000     0          
A_0      C      0.481100000000     0.825100000000     0.390100000000     0          
A_0      C      0.516100000000     0.110000000000     0.151600000000     0          
A_0      C      0.304600000000     0.062900000000     0.566300000000     0          
A_0      C      0.145500000000     0.809500000000     0.187400000000     0          
A_0      C      0.815600000000     0.460100000000     0.146900000000     0          
A_0      C      0.562400000000     0.367800000000     0.128500000000     0          
A_0      C      0.353900000000     0.272000000000     0.738200000000     0          
A_0      C      0.645900000000     0.738600000000     0.597300000000     0          
A_0      C      0.924300000000     0.939700000000     0.669400000000     0          
A_0      C      0.190300000000     0.207400000000     0.529600000000     0          
A_0      C      0.993300000000     0.240300000000     0.834100000000     0          
A_0      C      0.701900000000     0.135100000000     0.922600000000     0          
A_0      C      0.199000000000     0.420100000000     0.949800000000     0          
A_0      C      0.184400000000     0.890800000000     0.178900000000     0          
A_0      C      0.906600000000     0.587100000000     0.107000000000     0          
A_0      C      0.613300000000     0.417800000000     0.076300000000     0          
A_0      C      0.050000000000     0.570800000000     0.794900000000     0          
A_0      C      0.474700000000     0.985100000000     0.616600000000     0          
A_0      C      0.947800000000     0.687300000000     0.495300000000     0          
A_0      C      0.823700000000     0.814000000000     0.584500000000     0          
A_0      C      0.485900000000     0.569700000000     0.499900000000     0          
A_0      C      0.136800000000     0.417500000000     0.207600000000     0          
A_0      C      0.261700000000     0.199200000000     0.573100000000     0          
A_0      C      0.320200000000     0.585400000000     0.925400000000     0          
A_0      C      0.128300000000     0.156700000000     0.026100000000     0          
A_0      C      0.426400000000     0.487100000000     0.420300000000     0          
A_0      C      0.669800000000     0.988000000000     0.470200000000     0          
A_0      C      0.439600000000     0.501100000000     0.632700000000     0          
A_0      C      0.380200000000     0.171300000000     0.041900000000     0          
A_0      C      0.393700000000     0.897300000000     0.379600000000     0          
A_0      C      0.816400000000     0.178600000000     0.544600000000     0          
A_0      C      0.613500000000     0.555700000000     0.745900000000     0          
A_0      C      0.433200000000     0.438700000000     0.200500000000     0          
A_0      C      0.882400000000     0.726700000000     0.089900000000     0          
A_0      C      0.864200000000     0.265100000000     0.019600000000     0          
A_0      C      0.835200000000     0.222600000000     0.597800000000     0          
A_0      C      0.280200000000     0.487400000000     0.371600000000     0          
A_0      C      0.493500000000     0.576500000000     0.995600000000     0          
A_0      C      0.509500000000     0.811900000000     0.397100000000     0          
A_0      C      0.120500000000     0.150000000000     0.930300000000     0          
A_0      C      0.651300000000     0.751400000000     0.819300000000     0          
A_0      C      0.589500000000     0.281600000000     0.090900000000     0          
A_0      C      0.828700000000     0.520300000000     0.138100000000     0          
A_0      C      0.348400000000     0.150100000000     0.033000000000     0          
A_0      C      0.769500000000     0.228000000000     0.728300000000     0          
A_0      C      0.863700000000     0.133700000000     0.868200000000     0          
A_0      C      0.718300000000     0.929100000000     0.059200000000     0          
A_0      C      0.863900000000     0.613800000000     0.439400000000     0          
A_0      C      0.435400000000     0.442000000000     0.013400000000     0          
A_0      C      0.371200000000     0.737500000000     0.043900000000     0          
A_0      C      0.880500000000     0.955200000000     0.657300000000     0          
A_0      C      0.244800000000     0.321700000000     0.054400000000     0          
A_0      C      0.305600000000     0.929000000000     0.569000000000     0          
A_0      C      0.305900000000     0.755100000000     0.704300000000     0          
A_0      C      0.601200000000     0.198200000000     0.475900000000     0          
A_0      C      0.277500000000     0.851600000000     0.060400000000     0          
A_0      C      0.877000000000     0.413200000000     0.918900000000     0          
A_0      C      0.795200000000     0.150100000000     0.229100000000     0          
A_0      C      0.447000000000     0.716200000000     0.596900000000     0          
A_0      C      0.398000000000     0.667900000000     0.051600000000     0          
A_0      C      0.299000000000     0.772800000000     0.911800000000     0          
A_0      C      0.476300000000     0.767700000000     0.859700000000     0          
A_0      C      0.096300000000     0.996600000000     0.599000000000     0          
A_0      C      0.340200000000     0.556700000000     0.643700000000     0          
A_0      C      0.908500000000     0.425000000000     0.895000000000     0          
A_0      C      0.208900000000     0.319100000000     0.517700000000     0          
A_0      C      0.459300000000     0.096900000000     0.669500000000     0          
A_0      C      0.125100000000     0.002400000000     0.269300000000     0          
A_0      C      0.656500000000     0.266100000000     0.139300000000     0          
A_0      C      0.225300000000     0.638000000000     0.899100000000     0          
A_0      C      0.240200000000     0.231200000000     0.601800000000     0          
A_0      C      0.417600000000     0.951800000000     0.461800000000     0          
A_0      C      0.699000000000     0.598000000000     0.157800000000     0          
A_0      C      0.441000000000     0.843500000000     0.270300000000     0          
A_0      C      0.680800000000     0.969700000000     0.011600000000     0          
A_0      C      0.226600000000     0.179300000000     0.427300000000     0          
A_0      C      0.284000000000     0.961800000000     0.177800000000     0          
A_0      C      0.616700000000     0.821400000000     0.854200000000     0          
A_0      C      0.734100000000     0.852100000000     0.304400000000     0          
A_1      C      0.171800000000     0.166100000000     0.318000000000     0          
A_1      C      0.201500000000     0.380900000000     0.503100000000     0          
A_1      C      0.580800000000     0.252900000000     0.620000000000     0          
A_1      C      0.593000000000     0.733200000000     0.025800000000     0          
A_1      C      0.617200000000     0.415000000000     0.607700000000     0          
A_1      C      0.758200000000     0.443200000000     0.069400000000     0          
A_1      C      0.389900000000     0.110800000000     0.816500000000     0          
A_1      C      0.692400000000     0.698800000000     0.191200000000     0          
A_1      C      0.724300000000     0.356800000000     0.899600000000     0          
A_1      C      0.477700000000     0.635200000000     0.321200000000     0          
A_1      C      0.945900000000     0.478200000000     0.773300000000     0          
A_1      C      0.847100000000     0.266700000000     0.754000000000     0          
A_1      C      0.975400000000     0.437500000000     0.815700000000     0          
A_1      C      0.499200000000     0.128100000000     0.219300000000     0          
A_1      C      0.097900000000     0.333400000000     0.095400000000     0          
A_1      C      0.874700000000     0.217800000000     0.678400000000     0          
A_1      C      0.133700000000     0.407900000000     0.249300000000     0          
A_1      C      0.945500000000     0.435400000000     0.726000000000     0          
A_1      C      0.170300000000     0.066100000000     0.768500000000     0          
A_1      C      0.633100000000     0.646600000000     0.575600000000     0          
A_1      C      0.191200000000     0.142000000000     0.087600000000     0          
A_1      C      0.778100000000     0.033300000000     0.697200000000     0          
A_1      C      0.094700000000     0.706700000000     0.996600000000     0          
A_1      C      0.531600000000     0.532500000000     0.542200000000     0          
A_1      C      0.936400000000     0.193100000000     0.703400000000     0          
A_1      C      0.733500000000     0.066500000000     0.635200000000     0          
A_1      C      0.337700000000     0.415100000000     0.774400000000     0          
A_1      C      0.184700000000     0.050200000000     0.665200000000     0          
A_1      C      0.691700000000     0.632200000000     0.140000000000     0          
A_1      C      0.693600000000     0.584200000000     0.066000000000     0          
A_1      C      0.806700000000     0.060500000000     0.854900000000     0          
A_1      C      0.652300000000     0.618300000000     0.750900000000     0          
A_1      C      0.154500000000     0.785200000000     0.201000000000     0          
A_1      C      0.028100000000     0.630600000000     0.697900000000     0          
A_1      C      0.919600000000     0.579300000000     0.297600000000     0          
A_1      C      0.292900000000     0.647000000000     0.770000000000     0          
A_1      C      0.058400000000     0.116500000000     0.436900000000     0          
A_1      C      0.411000000000     0.022900000000     0.280600000000     0          
A_1      C      0.362600000000     0.479600000000     0.285700000000     0          
A_1      C      0.477000000000     0.647700000000     0.875600000000     0          
A_1      C      0.131800000000     0.133000000000     0.865100000000     0          
A_1      C      0.808800000000     0.589500000000     0.565000000000     0          
A_1      C      0.824000000000     0.879900000000     0.853900000000     0          
A_1      C      0.850600000000     0.088100000000     0.036300000000     0          
A_1      C      0.452700000000     0.412600000000     0.319300000000     0          
A_1      C      0.352200000000     0.462800000000     0.565700000000     0          
A_1      C      0.581800000000     0.438700000000     0.737900000000     0          
A_1      C      0.661200000000     0.150800000000     0.242100000000     0          
A_1      C      0.306500000000     0.294300000000     0.656500000000     0          
A_1      C      0.323400000000     0.202400000000     0.010200000000     0          
A_1      C      0.907500000000     0.810300000000     0.192400000000     0          
A_1      C      0.968000000000     0.740400000000     0.980600000000     0          
A_1      C      0.254100000000     0.611300000000     0.951000000000     0          
A_1      C      0.487600000000     0.462800000000     0.506400000000     0          
A_1      C      0.264900000000     0.463100000000     0.783900000000     0          
A_1      C      0.902800000000     0.537300000000     0.368900000000     0          
A_1      C      0.677800000000     0.804600000000     0.449000000000     0          
A_1      C      0.730300000000     0.441700000000     0.094200000000     0          
A_1      C      0.614800000000     0.113100000000     0.279300000000     0          
A_1      C      0.965700000000     0.324200000000     0.816300000000     0          
A_1      C      0.189900000000     0.236500000000     0.661500000000     0          
A_1      C      0.128900000000     0.471900000000     0.365500000000     0          
A_1      C      0.042900000000     0.390800000000     0.103900000000     0          
A_1      C      0.466500000000     0.542800000000     0.402200000000     0          
A_1      C      0.237200000000     0.267900000000     0.972500000000     0          
A_1      C      0.834900000000     0.482100000000     0.489700000000     0          
A_1      C      0.705600000000     0.602600000000     0.493200000000     0          
A_1      C      0.257100000000     0.928200000000     0.910700000000     0          
A_1      C      0.976300000000     0.644100000000     0.207900000000     0          
A_1      C      0.515500000000     0.138600000000     0.772300000000     0          
A_1      C      0.932000000000     0.469700000000     0.793700000000     0          
A_1      C      0.325800000000     0.836200000000     0.164600000000     0          
A_1      C      0.786400000000     0.214400000000     0.802000000000     0          
A_1      C      0.924300000000     0.541300000000     0.783300000000     0          
A_1      C      0.269100000000     0.652700000000     0.282300000000     0          
A_1      C      0.965000000000     0.635900000000     0.175200000000     0          
A_1      C      0.873300000000     0.108600000000     0.334800000000     0          
A_1      C      0.568200000000     0.104300000000     0.595700000000     0          
A_1      C      0.325300000000     0.416900000000     0.930100000000     0          
A_1      C      0.024000000000     0.948200000000     0.887200000000     0          
A_1      C      0.889900000000     0.428500000000     0.686800000000     0          
A_1      C      0.555100000000     0.299300000000     0.036400000000     0          
A_1      C      0.500400000000     0.608500000000     0.624400000000     0          
A_1      C      0.447200000000     0.769500000000     0.079300000000     0          
A_1      C      0.889200000000     0.070700000000     0.183500000000     0          
A_1      C      0.014400000000     0.208100000000     0.417300000000     0          
A_1      C      0.009500000000     0.956600000000     0.009700000000     0          
A_1      C      0.356700000000     0.619200000000     0.018500000000     0          
A_1      C      0.746800000000     0.584600000000     0.321600000000     0          
A_1      C      0.935300000000     0.934800000000     0.206900000000     0          
A_1      C      0.654400000000     0.681700000000     0.673500000000     0          
A_1      C      0.393700000000     0.894500000000     0.101500000000     0          
A_1      C      0.819900000000     0.792800000000     0.021600000000     0          
A_1      C      0.034000000000     0.554400000000     0.284200000000     0          
A_1      C      0.159300000000     0.816500000000     0.380800000000     0          
A_1      C      0.220500000000     0.983500000000     0.183900000000     0          
A_1      C      0.253600000000     0.051700000000     0.759000000000     0          
A_1      C      0.070600000000     0.736300000000     0.395000000000     0          
A_1      C      0.925800000000     0.543400000000     0.022600000000     0          
A_1      C      0.049500000000     0.055300000000     0.403400000000     0          
A_1      C      0.101700000000     0.414800000000     0.432700000000     0          
A_1      C      0.152600000000     0.941400000000     0.955100000000     0          
A_1      C      0.914400000000     0.668100000000     0.977800000000     0          
A_1      C      0.474000000000     0.490500000000     0.769700000000     0          
A_1      C      0.464000000000     0.911000000000     0.124900000000     0          
A_1      C      0.340700000000     0.365300000000     0.534100000000     0          
A_1      C      0.709500000000     0.054800000000     0.107300000000     0          
A_1      C      0.389900000000     0.702100000000     0.091900000000     0          
A_1      C      0.488300000000     0.931500000000     0.991800000000     0          
A_1      C      0.561900000000     0.432400000000     0.697500000000     0          
A_1      C      0.449700000000     0.354400000000     0.595600000000     0          
A_1      C      0.404000000000     0.399700000000     0.771200000000     0          
A_1      C      0.776900000000     0.259100000000     0.924900000000     0          
A_1      C      0.798900000000     0.588300000000     0.947000000000     0          
A_1      C      0.366300000000     0.925700000000     0.125800000000     0          
A_1      C      0.944300000000     0.748200000000     0.108500000000     0          
A_1      C      0.164700000000     0.452700000000     0.479000000000     0          
A_1      C      0.152200000000     0.386100000000     0.787200000000     0          
A_1      C      0.914900000000     0.895800000000     0.104000000000     0          
A_1      C      0.119000000000     0.476300000000     0.082200000000     0          
A_1      C      0.576500000000     0.546000000000     0.836500000000     0          
A_1      C      0.311600000000     0.461200000000     0.813900000000     0          
A_1      C      0.971600000000     0.372000000000     0.932600000000     0          
A_1      C      0.610000000000     0.979100000000     0.068900000000     0          
A_1      C      0.170900000000     0.296900000000     0.914600000000     0          
A_1      C      0.205400000000     0.701000000000     0.735200000000     0          
A_1      C      0.830000000000     0.254800000000     0.720500000000     0          
A_1      C      0.507600000000     0.383500000000     0.951600000000     0          
A_1      C      0.996000000000     0.706300000000     0.485100000000     0          
A_1      C      0.720500000000     0.735900000000     0.982400000000     0          
A_1      C      0.392700000000     0.032200000000     0.104700000000     0          
A_1      C      0.411100000000     0.420000000000     0.492600000000     0          
A_1      C      0.140300000000     0.220600000000     0.765100000000     0          
A_1      C      0.687300000000     0.417600000000     0.122400000000     0          
A_1      C      0.272400000000     0.231600000000     0.823600000000     0          
A_1      C      0.574500000000     0.547600000000     0.348700000000     0          
A_1      C      0.285000000000     0.458900000000     0.246000000000     0          
A_1      C      0.262700000000     0.238300000000     0.179100000000     0          
A_1      C      0.322100000000     0.992200000000     0.653300000000     0          
A_1      C      0.106100000000     0.775300000000     0.890300000000     0          
A_1      C      0.834400000000     0.412100000000     0.108800000000     0          
A_1      C      0.137000000000     0.472500000000     0.489000000000     0          
A_1      C      0.063100000000     0.321800000000     0.808300000000     0          
A_1      C      0.473000000000     0.218600000000     0.312500000000     0          
A_1      C      0.414900000000     0.020600000000     0.011100000000     0          
A_1      C      0.843200000000     0.979400000000     0.752100000000     0          
A_1      C      0.247300000000     0.443100000000     0.980400000000     0          
A_1      C      0.573500000000     0.577200000000     0.553000000000     0          
A_1      C      0.103800000000     0.283200000000     0.260200000000     0          
A_1      C      0.225300000000     0.905400000000     0.218800000000     0          
A_1      C      0.157400000000     0.045600000000     0.223600000000     0          
A_1      C      0.055900000000     0.329500000000     0.582900000000     0          
A_1      C      0.578900000000     0.439200000000     0.822100000000     0          
A_1      C      0.228300000000     0.927700000000     0.539800000000     0          
A_1      C      0.480500000000     0.846900000000     0.912500000000     0          
A_1      C      0.373200000000     0.661000000000     0.296100000000     0          
A_1      C      0.996100000000     0.894400000000     0.904700000000     0          
A_1      C      0.514200000000     0.601100000000     0.147700000000     0          
A_1      C      0.186000000000     0.685800000000     0.182700000000     0          
A_1      C      0.375600000000     0.924600000000     0.021800000000     0          
A_1      C      0.378600000000     0.438700000000     0.206500000000     0          
A_1      C      0.190000000000     0.930500000000     0.621900000000     0          
A_1      C      0.403200000000     0.432300000000     0.507600000000     0          
A_1      C      0.035100000000     0.570100000000     0.655700000000     0          
A_1      C      0.712900000000     0.503700000000     0.568500000000     0          
A_1      C      0.170200000000     0.333100000000     0.927300000000     0          
A_1      C      0.975700000000     0.256800000000     0.042000000000     0          
A_1      C      0.344200000000     0.603500000000     0.749800000000     0          
A_1      C      0.394600000000     0.092100000000     0.048200000000     0          
A_1      C      0.312700000000     0.357800000000     0.104300000000     0          
A_1      C      0.787500000000     0.953300000000     0.960200000000     0          
A_1      C      0.083100000000     0.808100000000     0.820300000000     0          
A_1      C      0.271400000000     0.806200000000     0.093700000000     0          
A_1      C      0.420300000000     0.545000000000     0.614900000000     0          
A_1      C      0.362900000000     0.898100000000     0.776900000000     0          
A_1      C      0.604200000000     0.545800000000     0.674200000000     0          
A_1      C      0.393200000000     0.288100000000     0.379300000000     0          
A_1      C      0.639000000000     0.203400000000     0.069000000000     0          
A_1      C      0.875700000000     0.741300000000     0.546300000000     0          
A_1      C      0.956700000000     0.275500000000     0.845200000000     0          
A_1      C      0.758200000000     0.702800000000     0.725500000000     0          
A_1      C      0.431000000000     0.143800000000     0.012500000000     0          
A_1      C      0.997300000000     0.028700000000     0.649100000000     0          
A_1      C      0.328200000000     0.501400000000     0.162400000000     0          
A_1      C      0.322900000000     0.848000000000     0.993700000000     0          
A_1      C      0.834300000000     0.668500000000     0.744200000000     0          
A_1      C      0.988700000000     0.563400000000     0.462600000000     0          
A_1      C      0.153700000000     0.111700000000     0.284300000000     0          
A_1      C      0.507300000000     0.916900000000     0.742400000000     0          
A_1      C      0.561000000000     0.025600000000     0.010100000000     0          
A_1      C      0.013900000000     0.013200000000     0.450300000000     0          
A_1      C      0.335900000000     0.673200000000     0.377700000000     0          
A_1      C      0.097300000000     0.018300000000     0.418800000000     0          
A_1      C      0.884300000000     0.350200000000     0.299600000000     0          
A_1      C      0.825100000000     0.624800000000     0.664600000000     0          
A_1      C      0.848600000000     0.982700000000     0.975800000000     0          
A_1      C      0.701100000000     0.545800000000     0.888300000000     0          
A_1      C      0.113600000000     0.137500000000     0.599700000000     0          
A_1      C      0.525800000000     0.912000000000     0.320400000000     0          
A_1      C      0.612000000000     0.720600000000     0.972100000000     0          
A_1      C      0.215300000000     0.751900000000     0.837400000000     0          
A_1      C      0.276700000000     0.886200000000     0.789000000000     0          
A_1      C      0.691700000000     0.358900000000     0.428500000000     0          
A_1      C      0.857800000000     0.912300000000     0.171000000000     0          
A_1      C      0.313600000000     0.152100000000     0.565600000000     0          
A_1      C      0.356100000000     0.678800000000     0.623500000000     0          
A_1      C      0.990300000000     0.620600000000     0.016600000000     0          
A_1      C      0.942400000000     0.038900000000     0.536700000000     0          
A_1      C      0.150800000000     0.397800000000     0.701000000000     0          
A_1      C      0.557900000000     0.753400000000     0.092000000000     0          
A_1      C      0.723500000000     0.424000000000     0.482500000000     0          
A_1      C      0.003800000000     0.542600000000     0.491600000000     0          
A_1      C      0.248300000000     0.008900000000     0.745100000000     0          
A_1      C      0.645900000000     0.829700000000     0.667900000000     0          
A_1      C      0.660500000000     0.854100000000     0.586900000000     0          
A_1      C      0.425300000000     0.635700000000     0.996600000000     0          
A_1      C      0.321700000000     0.726600000000     0.137100000000     0          
A_1      C      0.198700000000     0.734900000000     0.664900000000     0          
A_1      C      0.162000000000     0.637000000000     0.055800000000     0          
A_1      C      0.026000000000     0.103900000000     0.359100000000     0          
A_1      C      0.295100000000     0.269000000000     0.829300000000     0          
A_1      C      0.673300000000     0.494300000000     0.081700000000     0          
A_1      C      0.692200000000     0.852200000000     0.570900000000     0          
A_1      C      0.123500000000     0.183800000000     0.585200000000     0          
A_1      C      0.079500000000     0.052600000000     0.707600000000     0          
A_1      C      0.026000000000     0.207100000000     0.638400000000     0          
A_1      C      0.546600000000     0.135200000000     0.973700000000     0          
A_1      C      0.343300000000     0.377300000000     0.138500000000     0          
A_1      C      0.353600000000     0.539200000000     0.786400000000     0          
A_1      C      0.369400000000     0.919100000000     0.091700000000     0          
A_1      C      0.358500000000     0.898700000000     0.648100000000     0          
A_1      C      0.767200000000     0.676700000000     0.323000000000     0          
A_1      C      0.414500000000     0.049300000000     0.493300000000     0          
A_1      C      0.672700000000     0.977900000000     0.770300000000     0          
A_1      C      0.963000000000     0.875200000000     0.308400000000     0          
A_1      C      0.343000000000     0.398500000000     0.524300000000     0          
A_1      C      0.449400000000     0.884200000000     0.738500000000     0          
A_1      C      0.206400000000     0.143600000000     0.754400000000     0          
A_1      C      0.740700000000     0.057400000000     0.002900000000     0          
A_1      C      0.306500000000     0.104400000000     0.152400000000     0          
A_1      C      0.389300000000     0.021800000000     0.176500000000     0          
A_1      C      0.427100000000     0.765300000000     0.731300000000     0          
A_1      C      0.432000000000     0.134100000000     0.078600000000     0          
A_1      C      0.200800000000     0.483800000000     0.040500000000     0          
A_1      C      0.810000000000     0.001300000000     0.195300000000     0          
A_1      C      0.373800000000     0.608500000000     0.216200000000     0          
A_1      C      0.132500000000     0.064700000000     0.067000000000     0          
A_1      C      0.710800000000     0.539900000000     0.986600000000     0          
A_1      C      0.171900000000     0.064400000000     0.322900000000     0          
A_1      C      0.853900000000     0.735100000000     0.558200000000     0          
A_1      C      0.799800000000     0.921400000000     0.731100000000     0          
A_1      C      0.531900000000     0.607500000000     0.883700000000     0          
A_1      C      0.038900000000     0.472400000000     0.662100000000     0          
A_1      C      0.364200000000     0.905300000000     0.994500000000     0          
A_1      C      0.249600000000     0.453200000000     0.189800000000     0          
A_1      C      0.839300000000     0.801300000000     0.103700000000     0          
A_1      C      0.341800000000     0.185800000000     0.572300000000     0          
A_1      C      0.570200000000     0.010200000000     0.448300000000     0          
A_1      C      0.328500000000     0.970900000000     0.438200000000     0          
A_1      C      0.479900000000     0.619600000000     0.395600000000     0          
A_1      C      0.763800000000     0.849800000000     0.565800000000     0          
A_1      C      0.342800000000     0.621400000000     0.969900000000     0          
A_1      C      0.762300000000     0.655800000000     0.291300000000     0          
A_1      C      0.211600000000     0.705500000000     0.264600000000     0          
A_1      C      0.687400000000     0.945400000000     0.991800000000     0          
A_1      C      0.650100000000     0.235100000000     0.948300000000     0          
A_1      C      0.132000000000     0.201000000000     0.709600000000     0          
A_1      C      0.789100000000     0.237900000000     0.954800000000     0          
A_1      C      0.379400000000     0.599600000000     0.797700000000     0          
A_1      C      0.311000000000     0.500600000000     0.384400000000     0          
A_1      C      0.480100000000     0.041600000000     0.889600000000     0          
A_1      C      0.929700000000     0.535000000000     0.759800000000     0          
A_1      C      0.223600000000     0.351300000000     0.366800000000     0          
A_1      C      0.494000000000     0.250200000000     0.356900000000     0          
A_1      C      0.061000000000     0.217200000000     0.485400000000     0          
A_1      C      0.282700000000     0.194700000000     0.336300000000     0          
A_1      C      0.110200000000     0.083900000000     0.106400000000     0          
A_1      C      0.009500000000     0.408400000000     0.087200000000     0          
A_1      C      0.127100000000     0.076200000000     0.060400000000     0          
A_1      C      0.457100000000     0.302700000000     0.140700000000     0          
A_1      C      0.046600000000     0.125300000000     0.729700000000     0          
A_1      C      0.008500000000     0.265700000000     0.340700000000     0          
A_1      C      0.093900000000     0.722300000000     0.028700000000     0          
A_1      C      0.279700000000     0.327500000000     0.161600000000     0          
A_1      C      0.217000000000     0.175800000000     0.930100000000     0          
A_1      C      0.621300000000     0.371100000000     0.931000000000     0          
A_1      C      0.827000000000     0.538800000000     0.651600000000     0          
A_1      C      0.374400000000     0.970900000000     0.041100000000     0          
A_1      C      0.419700000000     0.323000000000     0.707100000000     0          
A_1      C      0.942700000000     0.486200000000     0.719000000000     0          
A_1      C      0.532600000000     0.239800000000     0.796600000000     0          
A_1      C      0.507500000000     0.017700000000     0.466500000000     0          
A_1      C      0.618500000000     0.214400000000     0.550800000000     0          
A_1      C      0.624400000000     0.748800000000     0.004400000000     0          
A_1      C      0.295200000000     0.396800000000     0.249100000000     0          
A_1      C      0.233400000000     0.677000000000     0.370100000000     0          
A_1      C      0.566900000000     0.609300000000     0.874900000000     0          
A_1      C      0.751600000000     0.281400000000     0.403600000000     0          
A_1      C      0.398500000000     0.709200000000     0.372100000000     0          
A_1      C      0.748700000000     0.301900000000     0.770800000000     0          
A_1      C      0.833800000000     0.595000000000     0.380400000000     0          
A_1      C      0.280800000000     0.443800000000     0.883600000000     0          
A_1      C      0.610200000000     0.608200000000     0.347800000000     0          
A_1      C      0.344900000000     0.361800000000     0.851200000000     0          
A_1      C      0.003700000000     0.227700000000     0.218400000000     0          
A_1      C      0.379800000000     0.340200000000     0.987000000000     0          
A_1      C      0.137100000000     0.769000000000     0.146700000000     0          
A_1      C      0.772300000000     0.466900000000     0.343900000000     0          
A_1      C      0.458900000000     0.508400000000     0.992300000000     0          
A_1      C      0.907500000000     0.383200000000     0.299700000000     0          
A_1      C      0.872700000000     0.620500000000     0.772300000000     0          
A_1      C      0.531400000000     0.669000000000     0.917900000000     0          
A_1      C      0.925200000000     0.330200000000     0.603000000000     0          
A_1      C      0.025600000000     0.316900000000     0.961900000000     0          
A_1      C      0.400300000000     0.526600000000     0.180400000000     0          
A_1      C      0.738900000000     0.512700000000     0.484200000000     0          
A_1      C      0.627100000000     0.837600000000     0.456800000000     0          
A_1      C      0.673900000000     0.844600000000     0.528100000000     0          
A_1      C      0.188400000000     0.612800000000     0.764800000000     0          
A_2      C      0.893900000000     0.053500000000     0.003200000000     0          
A_2      C      0.608400000000     0.521400000000     0.280000000000     0          
A_2      C      0.120700000000     0.059200000000     0.880600000000     0          
A_2      C      0.241400000000     0.789500000000     0.776200000000     0          
A_2      C      0.751100000000     0.519200000000     0.174300000000     0          
A_2      C      0.663700000000     0.915900000000     0.422900000000     0          
A_2      C      0.745100000000     0.772700000000     0.421100000000     0          
A_2      C      0.064800000000     0.029800000000     0.149400000000     0          
A_2      C      0.423800000000     0.205000000000     0.301000000000     0          
A_2      C      0.757500000000     0.796000000000     0.237100000000     0          
A_2      C      0.980900000000     0.563800000000     0.898000000000     0          
A_2      C      0.093500000000     0.615900000000     0.078300000000     0          
A_2      C      0.868600000000     0.572300000000     0.510400000000     0          
A_2      C      0.562600000000     0.844400000000     0.995700000000     0          
A_2      C      0.747700000000     0.001700000000     0.895300000000     0          
A_2      C      0.826300000000     0.676500000000     0.402700000000     0          
A_2      C      0.661100000000     0.871400000000     0.546300000000     0          
A_2      C      0.089000000000     0.186200000000     0.290600000000     0          
A_2      C      0.623100000000     0.008400000000     0.691200000000     0          
A_2      C      0.072600000000     0.112400000000     0.554200000000     0          
A_2      C      0.912600000000     0.918000000000     0.000100000000     0          
A_2      C      0.783300000000     0.109800000000     0.763300000000     0          
A_2      C      0.058600000000     0.130500000000     0.783400000000     0          
A_2      C      0.781500000000     0.439700000000     0.606000000000     0          
A_2      C      0.456900000000     0.419700000000     0.668900000000     0          
A_2      C      0.107500000000     0.063800000000     0.083900000000     0          
A_2      C      0.559100000000     0.477500000000     0.288500000000     0          
A_2      C      0.792800000000     0.875200000000     0.552700000000     0          
A_2      C      0.031200000000     0.077700000000     0.581800000000     0          
A_2      C      0.571400000000     0.384500000000     0.616400000000     0          
A_2      C      0.159700000000     0.287000000000     0.373700000000     0          
A_2      C      0.628100000000     0.505600000000     0.322000000000     0          
A_2      C      0.677700000000     0.297400000000     0.466200000000     0          
A_2      C      0.307700000000     0.899600000000     0.394400000000     0          
A_2      C      0.383900000000     0.604600000000     0.211700000000     0          
A_2      C      0.689100000000     0.145200000000     0.345600000000     0          
A_2      C      0.775700000000     0.938500000000     0.902100000000     0          
A_2      C      0.947300000000     0.365700000000     0.962900000000     0          
A_2      C      0.528600000000     0.962000000000     0.504400000000     0          
A_2      C      0.190900000000     0.686500000000     0.479100000000     0          
A_2      C      0.388400000000     0.210900000000     0.956700000000     0          
A_2      C      0.636500000000     0.938200000000     0.436900000000     0          
A_2      C      0.318200000000     0.427500000000     0.709800000000     0          
A_2      C      0.740400000000     0.626400000000     0.998600000000     0          
A_2      C      0.990500000000     0.541100000000     0.745900000000     0          
A_2      C      0.297800000000     0.255500000000     0.340100000000     0          
A_2      C      0.277200000000     0.590000000000     0.244800000000     0          
A_2      C      0.687400000000     0.009900000000     0.957600000000     0          
A_2      C      0.654400000000     0.143800000000     0.590400000000     0          
A_2      C      0.974400000000     0.128000000000     0.470000000000     0          
A_2      C      0.163300000000     0.129400000000     0.100300000000     0          
A_2      C      0.274000000000     0.332100000000     0.453400000000     0          
A_2      C      0.752100000000     0.568900000000     0.371000000000     0          
A_2      C      0.996700000000     0.697500000000     0.545700000000     0          
A_2      C      0.957900000000     0.773400000000     0.844200000000     0          
A_2      C      0.867500000000     0.815300000000     0.899500000000     0          
A_2      C      0.080100000000     0.750300000000     0.947500000000     0          
A_2      C      0.698100000000     0.024500000000     0.339600000000     0          
A_2      C      0.441100000000     0.189400000000     0.425700000000     0          
A_2      C      0.482700000000     0.097400000000     0.066600000000     0          
A_2      C      0.196700000000     0.742400000000     0.081000000000     0          
A_2      C      0.624900000000     0.424000000000     0.608900000000     0          
A_2      C      0.244500000000     0.492600000000     0.939800000000     0          
A_2      C      0.816500000000     0.360400000000     0.174200000000     0          
A_2      C      0.195200000000     0.921800000000     0.638600000000     0          
A_2      C      0.442900000000     0.958100000000     0.213700000000     0          
A_2      C      0.614000000000     0.857800000000     0.984600000000     0          
A_2      C      0.736700000000     0.127600000000     0.992800000000     0          
A_2      C      0.856300000000     0.063700000000     0.502400000000     0          
A_2      C      0.741100000000     0.602700000000     0.026200000000     0          
A_2      C      0.364900000000     0.639200000000     0.918300000000     0          
A_2      C      0.368600000000     0.264200000000     0.706800000000     0          
A_2      C      0.589900000000     0.802000000000     0.371700000000     0          
A_2      C      0.601900000000     0.892500000000     0.975300000000     0          
A_2      C      0.202100000000     0.707400000000     0.041300000000     0          
A_2      C      0.949700000000     0.459100000000     0.055100000000     0          
A_2      C      0.459200000000     0.879900000000     0.344300000000     0          
A_2      C      0.787100000000     0.495700000000     0.596000000000     0          
A_2      C      0.317300000000     0.028100000000     0.932000000000     0          
A_2      C      0.091600000000     0.450400000000     0.591400000000     0          
A_2      C      0.948400000000     0.007300000000     0.583400000000     0          
A_2      C      0.244100000000     0.951800000000     0.163300000000     0          
A_2      C      0.517200000000     0.263400000000     0.024100000000     0          
A_2      C      0.797700000000     0.568000000000     0.833800000000     0          
A_2      C      0.830200000000     0.539800000000     0.370500000000     0          
A_2      C      0.132400000000     0.005500000000     0.654200000000     0          
A_2      C      0.341900000000     0.243700000000     0.568400000000     0          
A_2      C      0.801800000000     0.460200000000     0.739400000000     0          
A_2      C      0.717000000000     0.401000000000     0.712000000000     0          
A_2      C      0.307500000000     0.918600000000     0.255600000000     0          
A_2      C      0.682200000000     0.599300000000     0.168700000000     0          
A_2      C      0.377900000000     0.901000000000     0.733000000000     0          
A_2      C      0.222000000000     0.830400000000     0.057400000000     0          
A_2      C      0.679900000000     0.181500000000     0.948000000000     0          
A_2      C      0.008700000000     0.643900000000     0.217700000000     0          
A_2      C      0.013400000000     0.516700000000     0.101300000000     0          
A_2      C      0.302000000000     0.133500000000     0.989700000000     0          
A_2      C      0.345700000000     0.951400000000     0.354200000000     0          
A_2      C      0.059500000000     0.667300000000     0.128300000000     0          
A_2      C      0.888600000000     0.406500000000     0.112500000000     0          
A_2      C      0.503600000000     0.631300000000     0.375900000000     0          
A_2      C      0.814300000000     0.779600000000     0.618100000000     0          
A_2      C      0.658600000000     0.715400000000     0.129700000000     0          
A_2      C      0.944200000000     0.956100000000     0.576900000000     0          
A_2      C      0.758800000000     0.042600000000     0.435500000000     0          
A_2      C      0.322600000000     0.470500000000     0.338400000000     0          
A_2      C      0.191200000000     0.467200000000     0.182500000000     0          
A_2      C      0.028600000000     0.331400000000     0.621800000000     0          
A_2      C      0.772700000000     0.731400000000     0.313600000000     0          
A_2      C      0.775500000000     0.505000000000     0.080600000000     0          
A_2      C      0.191700000000     0.195100000000     0.146500000000     0          
A_2      C      0.453400000000     0.550600000000     0.569900000000     0          
A_2      C      0.213700000000     0.771200000000     0.104100000000     0          
A_2      C      0.820600000000     0.885500000000     0.404400000000     0          
A_2      C      0.802700000000     0.211700000000     0.477500000000     0          
A_2      C      0.235500000000     0.011100000000     0.387300000000     0          
A_2      C      0.126200000000     0.840300000000     0.317400000000     0          
A_2      C      0.471900000000     0.263800000000     0.946200000000     0          
A_2      C      0.696500000000     0.121400000000     0.804500000000     0          
A_2      C      0.710600000000     0.287100000000     0.551100000000     0          
A_2      C      0.038200000000     0.338400000000     0.154900000000     0          
A_2      C      0.665900000000     0.376100000000     0.167100000000     0          
A_2      C      0.378300000000     0.183000000000     0.234100000000     0          
A_2      C      0.032200000000     0.933900000000     0.182300000000     0          
A_2      C      0.559500000000     0.736700000000     0.196400000000     0          
A_2      C      0.149600000000     0.899900000000     0.303500000000     0          
A_2      C      0.379500000000     0.016000000000     0.498100000000     0          
A_2      C      0.735600000000     0.915600000000     0.351800000000     0          
A_2      C      0.499900000000     0.519700000000     0.648900000000     0          
A_2      C      0.016500000000     0.706400000000     0.786300000000     0          
A_2      C      0.009600000000     0.498400000000     0.902000000000     0          
A_2      C      0.734600000000     0.585100000000     0.336500000000     0          
A_2      C      0.904000000000     0.069000000000     0.909700000000     0          
A_2      C      0.021600000000     0.308100000000     0.117700000000     0          
A_2      C      0.132900000000     0.728500000000     0.756300000000     0          
A_2      C      0.550700000000     0.224800000000     0.439900000000     0          
A_2      C      0.539800000000     0.994900000000     0.590200000000     0          
A_2      C      0.897700000000     0.252900000000     0.126800000000     0          
A_2      C      0.190100000000     0.338000000000     0.623800000000     0          
A_2      C      0.254100000000     0.581900000000     0.834700000000     0          
A_2      C      0.410500000000     0.528500000000     0.410300000000     0          
A_2      C      0.817200000000     0.701800000000     0.549700000000     0          
A_2      C      0.003100000000     0.907300000000     0.292000000000     0          
A_2      C      0.855900000000     0.435400000000     0.289400000000     0          
A_2      C      0.546700000000     0.392600000000     0.911900000000     0          
A_2      C      0.613600000000     0.949900000000     0.278200000000     0          
A_2      C      0.684500000000     0.711700000000     0.047400000000     0          
A_2      C      0.083900000000     0.628000000000     0.115800000000     0          
A_2      C      0.332900000000     0.334800000000     0.232100000000     0          
A_2      C      0.140400000000     0.147600000000     0.413600000000     0          
A_2      C      0.426600000000     0.370100000000     0.287400000000     0          
A_2      C      0.604600000000     0.421000000000     0.671100000000     0          
A_2      C      0.309500000000     0.077200000000     0.393400000000     0          
A_2      C      0.232700000000     0.553300000000     0.473400000000     0          
A_2      C      0.028400000000     0.481300000000     0.770100000000     0          
A_2      C      0.528100000000     0.117700000000     0.614900000000     0          
A_2      C      0.118900000000     0.528100000000     0.554000000000     0          
A_2      C      0.820900000000     0.720900000000     0.521500000000     0          
A_2      C      0.832700000000     0.173900000000     0.918900000000     0          
A_2      C      0.901400000000     0.305200000000     0.489700000000     0          
A_2      C      0.737800000000     0.216300000000     0.490000000000     0          
A_2      C      0.478600000000     0.881600000000     0.055800000000     0          
A_2      C      0.787600000000     0.689300000000     0.239100000000     0          
A_2      C      0.786500000000     0.352200000000     0.648900000000     0          
A_2      C      0.742900000000     0.667800000000     0.411500000000     0          
A_2      C      0.802700000000     0.684300000000     0.726400000000     0          
A_2      C      0.325200000000     0.555400000000     0.434100000000     0          
A_2      C      0.307100000000     0.398000000000     0.655800000000     0          
A_2      C      0.267300000000     0.499000000000     0.990500000000     0          
A_2      C      0.776600000000     0.457500000000     0.216600000000     0          
A_2      C      0.053700000000     0.740400000000     0.028600000000     0          
A_2      C      0.417100000000     0.939400000000     0.288900000000     0          
A_2      C      0.773200000000     0.885000000000     0.552700000000     0          
A_2      C      0.074000000000     0.051800000000     0.030200000000     0          
A_2      C      0.992700000000     0.698400000000     0.795700000000     0          
A_2      C      0.938100000000     0.204300000000     0.145100000000     0          
A_2      C      0.108800000000     0.912300000000     0.387700000000     0          
A_2      C      0.836000000000     0.017200000000     0.767600000000     0          
A_2      C      0.137600000000     0.833400000000     0.049300000000     0          
A_2      C      0.505000000000     0.239100000000     0.140200000000     0          
A_2      C      0.881900000000     0.296200000000     0.908600000000     0          
A_2      C      0.429900000000     0.507100000000     0.460500000000     0          
A_2      C      0.131900000000     0.076800000000     0.157200000000     0          
A_2      C      0.644300000000     0.074800000000     0.118400000000     0          
A_2      C      0.046300000000     0.817700000000     0.979600000000     0          
A_2      C      0.854800000000     0.880200000000     0.067200000000     0          
A_2      C      0.143800000000     0.224700000000     0.852200000000     0          
A_2      C      0.798100000000     0.708600000000     0.504300000000     0          
A_2      C      0.035500000000     0.525000000000     0.225700000000     0          
A_2      C      0.859700000000     0.857300000000     0.102700000000     0          
A_2      C      0.659700000000     0.632200000000     0.841800000000     0          
A_2      C      0.133300000000     0.117300000000     0.138300000000     0          
A_2      C      0.331200000000     0.338100000000     0.250000000000     0          
A_2      C      0.330700000000     0.667800000000     0.889500000000     0          
A_2      C      0.059600000000     0.246900000000     0.563900000000     0          
A_2      C      0.035200000000     0.456900000000     0.014900000000     0          
A_2      C      0.254600000000     0.696300000000     0.448600000000     0          
A_2      C      0.465600000000     0.856700000000     0.921700000000     0          
A_2      C      0.160600000000     0.775400000000     0.675000000000     0          
A_2      C      0.836600000000     0.641200000000     0.657000000000     0          
A_2      C      0.151900000000     0.618000000000     0.360300000000     0          
A_2      C      0.526700000000     0.594600000000     0.672200000000     0          
A_2      C      0.291800000000     0.026300000000     0.980500000000     0          
A_2      C      0.374400000000     0.689900000000     0.786100000000     0          
A_2      C      0.825100000000     0.467500000000     0.313300000000     0          
A_2      C      0.213100000000     0.195300000000     0.465700000000     0          
A_2      C      0.525100000000     0.486700000000     0.076400000000     0          
A_2      C      0.974000000000     0.844900000000     0.116900000000     0          
A_2      C      0.780400000000     0.974000000000     0.325500000000     0          
A_2      C      0.793400000000     0.028800000000     0.324000000000     0          
A_2      C      0.910600000000     0.870800000000     0.497400000000     0          
A_2      C      0.766700000000     0.664700000000     0.387600000000     0          
A_2      C      0.923500000000     0.946000000000     0.731100000000     0          
A_2      C      0.878300000000     0.240200000000     0.053700000000     0          
A_2      C      0.876300000000     0.001800000000     0.656000000000     0          
A_2      C      0.723900000000     0.591200000000     0.358400000000     0          
A_2      C      0.812700000000     0.621100000000     0.988300000000     0          
A_2      C      0.648300000000     0.511100000000     0.287000000000     0          
A_2      C      0.585400000000     0.906700000000     0.927200000000     0          
A_2      C      0.836300000000     0.828900000000     0.521100000000     0          
A_2      C      0.690100000000     0.933500000000     0.187600000000     0          
A_2      C      0.401500000000     0.015000000000     0.111300000000     0          
A_2      C      0.077200000000     0.691000000000     0.295600000000     0          
A_2      C      0.144700000000     0.655000000000     0.685800000000     0          
A_2      C      0.368800000000     0.075200000000     0.931600000000     0          
A_2      C      0.241100000000     0.815900000000     0.129000000000     0          
A_2      C      0.175500000000     0.879600000000     0.292400000000     0          
A_2      C      0.422100000000     0.259100000000     0.651000000000     0          
A_2      C      0.888100000000     0.917100000000     0.745000000000     0          
A_2      C      0.917500000000     0.721500000000     0.355600000000     0          
A_2      C      0.578900000000     0.045800000000     0.116000000000     0          
A_2      C      0.760300000000     0.823500000000     0.894100000000     0          
A_2      C      0.898300000000     0.971600000000     0.335600000000     0          
A_2      C      0.147500000000     0.270200000000     0.006000000000     0          
A_2      C      0.444200000000     0.204500000000     0.280100000000     0          
A_2      C      0.072400000000     0.610100000000     0.152400000000     0          
A_2      C      0.382900000000     0.407300000000     0.856900000000     0          
A_2      C      0.231600000000     0.750400000000     0.863500000000     0          
A_2      C      0.742700000000     0.028500000000     0.616800000000     0          
A_2      C      0.908100000000     0.802200000000     0.162100000000     0          
A_2      C      0.074300000000     0.238400000000     0.711000000000     0          
A_2      C      0.222600000000     0.310200000000     0.953900000000     0          
A_2      C      0.777900000000     0.873300000000     0.404300000000     0          
A_2      C      0.975900000000     0.314000000000     0.968100000000     0          
A_2      C      0.297700000000     0.712000000000     0.302300000000     0          
A_2      C      0.383000000000     0.406600000000     0.003300000000     0          
A_2      C      0.631500000000     0.133500000000     0.627700000000     0          
A_2      C      0.973700000000     0.925400000000     0.513600000000     0          
A_2      C      0.529800000000     0.803900000000     0.422100000000     0          
A_2      C      0.434400000000     0.418300000000     0.181600000000     0          
A_2      C      0.972900000000     0.907200000000     0.015100000000     0          
A_2      C      0.601300000000     0.934900000000     0.714900000000     0          
A_2      C      0.665600000000     0.317900000000     0.820800000000     0          
A_2      C      0.891200000000     0.414700000000     0.103800000000     0          
A_2      C      0.753600000000     0.940200000000     0.717700000000     0          
A_2      C      0.679400000000     0.077900000000     0.135100000000     0          
A_2      C      0.574100000000     0.787500000000     0.006900000000     0          
A_2      C      0.940000000000     0.984000000000     0.876300000000     0          
A_2      C      0.253400000000     0.226500000000     0.713100000000     0          
A_2      C      0.975100000000     0.810800000000     0.974500000000     0          
A_2      C      0.202400000000     0.106300000000     0.011000000000     0          
A_2      C      0.806400000000     0.630300000000     0.587600000000     0          
A_2      C      0.858100000000     0.144700000000     0.467800000000     0          
A_2      C      0.856100000000     0.325300000000     0.711200000000     0          
A_2      C      0.100800000000     0.046600000000     0.754900000000     0          
A_2      C      0.566800000000     0.710800000000     0.908800000000     0          
A_2      C      0.051400000000     0.309400000000     0.582100000000     0          
A_2      C      0.832600000000     0.458500000000     0.201800000000     0          
A_2      C      0.456800000000     0.918600000000     0.542700000000     0          
A_2      C      0.713100000000     0.616100000000     0.906600000000     0          
A_2      C      0.612000000000     0.676300000000     0.441700000000     0          
A_2      C      0.485400000000     0.931200000000     0.265000000000     0          
A_2      C      0.330200000000     0.462600000000     0.932800000000     0          
A_2      C      0.590800000000     0.263600000000     0.001100000000     0          
A_2      C      0.390200000000     0.926700000000     0.704500000000     0          
A_2      C      0.862200000000     0.442200000000     0.391700000000     0          
A_2      C      0.350900000000     0.601600000000     0.325700000000     0          
A_2      C      0.238800000000     0.815500000000     0.036100000000     0          
A_2      C      0.870600000000     0.729200000000     0.996700000000     0          
A_2      C      0.663900000000     0.513800000000     0.474100000000     0          
A_2      C      0.850200000000     0.428500000000     0.131900000000     0          
A_2      C      0.031600000000     0.989800000000     0.011900000000     0          
A_2      C      0.728500000000     0.446100000000     0.638500000000     0          
A_2      C      0.935400000000     0.294600000000     0.309800000000     0          
A_2      C      0.859900000000     0.554900000000     0.673100000000     0          
A_2      C      0.828900000000     0.772300000000     0.596700000000     0          
A_2      C      0.149400000000     0.946400000000     0.557000000000     0          
A_2      C      0.958700000000     0.876800000000     0.477800000000     0          
A_2      C      0.565500000000     0.920700000000     0.036700000000     0          
A_2      C      0.423800000000     0.129600000000     0.315600000000     0          
A_2      C      0.883300000000     0.589200000000     0.865000000000     0          
A_2      C      0.757700000000     0.188400000000     0.129600000000     0          
A_2      C      0.346100000000     0.072800000000     0.467500000000     0          
A_2      C      0.330400000000     0.918700000000     0.893100000000     0          
A_2      C      0.800200000000     0.325000000000     0.904300000000     0          
A_2      C      0.588000000000     0.081300000000     0.165400000000     0          
A_2      C      0.650400000000     0.934000000000     0.019200000000     0          
A_2      C      0.237100000000     0.216800000000     0.780300000000     0          
A_2      C      0.779800000000     0.110900000000     0.678000000000     0          
A_2      C      0.199400000000     0.370800000000     0.100600000000     0          
A_2      C      0.836800000000     0.171200000000     0.088700000000     0          
A_2      C      0.078300000000     0.103600000000     0.931300000000     0          
A_2      C      0.633500000000     0.087600000000     0.656300000000     0          
A_2      C      0.418300000000     0.751100000000     0.430300000000     0          
A_2      C      0.182600000000     0.070000000000     0.219400000000     0          
A_2      C      0.385000000000     0.645800000000     0.038400000000     0          
A_2      C      0.611700000000     0.225900000000     0.218000000000     0          
A_2      C      0.924300000000     0.318100000000     0.035900000000     0          
A_2      C      0.331800000000     0.081100000000     0.468000000000     0          
A_2      C      0.562500000000     0.873900000000     0.439400000000     0          
A_2      C      0.726000000000     0.075400000000     0.078100000000     0          
A_2      C      0.127200000000     0.072800000000     0.525000000000     0          
A_2      C      0.180500000000     0.585600000000     0.605000000000     0          
A_2      C      0.910700000000     0.058800000000     0.384200000000     0          
A_2      C      0.380100000000     0.358800000000     0.784000000000     0          
A_2      C      0.418800000000     0.809600000000     0.790800000000     0          
A_2      C      0.139100000000     0.060200000000     0.347000000000     0          
A_2      C      0.954200000000     0.896800000000     0.000100000000     0          
A_3      C      0.175300000000     0.964200000000     0.240900000000     0          
A_3      C      0.347800000000     0.523000000000     0.157600000000     0          
A_3      C      0.912100000000     0.580200000000     0.376600000000     0          
A_3      C      0.359500000000     0.329700000000     0.800200000000     0          
A_3      C      0.604500000000     0.819800000000     0.099600000000     0          
A_3      C      0.437800000000     0.518600000000     0.531000000000     0          
A_3      C      0.536700000000     0.509200000000     0.549600000000     0          
A_3      C      0.842500000000     0.426100000000     0.677800000000     0          
A_3      C      0.987400000000     0.462700000000     0.568300000000     0          
A_3      C      0.297200000000     0.233900000000     0.501000000000     0          
A_3      C      0.810500000000     0.939400000000     0.870100000000     0          
A_3      C      0.662600000000     0.757200000000     0.396700000000     0          
A_3      C      0.672400000000     0.445400000000     0.182900000000     0          
A_3      C      0.698200000000     0.793600000000     0.362500000000     0          
A_3      C      0.220100000000     0.847300000000     0.735700000000     0          
A_3      C      0.633300000000     0.417700000000     0.381400000000     0          
A_3      C      0.320200000000     0.563000000000     0.325900000000     0          
A_3      C      0.012900000000     0.331000000000     0.378800000000     0          
A_3      C      0.591200000000     0.095600000000     0.989400000000     0          
A_3      C      0.173500000000     0.828400000000     0.089100000000     0          
A_3      C      0.525500000000     0.523700000000     0.843000000000     0          
A_3      C      0.603200000000     0.307500000000     0.926200000000     0          
A_3      C      0.300600000000     0.985800000000     0.193600000000     0          
A_3      C      0.394800000000     0.728300000000     0.220700000000     0          
A_3      C      0.440200000000     0.861200000000     0.447700000000     0          
A_3      C      0.213500000000     0.243300000000     0.368200000000     0          
A_3      C      0.469700000000     0.856800000000     0.581100000000     0          
A_3      C      0.185100000000     0.833100000000     0.720600000000     0          
A_3      C      0.575700000000     0.070800000000     0.085200000000     0          
A_3      C      0.746700000000     0.804800000000     0.570800000000     0          
A_3      C      0.016000000000     0.769400000000     0.691300000000     0          
A_3      C      0.805300000000     0.118000000000     0.331700000000     0          
A_3      C      0.301700000000     0.057000000000     0.373700000000     0          
A_3      C      0.358000000000     0.642100000000     0.624900000000     0          
A_3      C      0.318500000000     0.058800000000     0.890900000000     0          
A_3      C      0.960600000000     0.916200000000     0.102600000000     0          
A_3      C      0.246900000000     0.854000000000     0.724100000000     0          
A_3      C      0.282500000000     0.104900000000     0.689300000000     0          
A_3      C      0.392500000000     0.498800000000     0.186100000000     0          
A_3      C      0.712200000000     0.649000000000     0.956200000000     0          
A_3      C      0.567100000000     0.084700000000     0.875800000000     0          
A_3      C      0.034100000000     0.376800000000     0.432700000000     0          
A_3      C      0.017200000000     0.824700000000     0.971200000000     0          
A_3      C      0.461000000000     0.598200000000     0.023900000000     0          
A_3      C      0.894200000000     0.820000000000     0.825700000000     0          
A_3      C      0.146400000000     0.982800000000     0.857400000000     0          
A_3      C      0.930700000000     0.376600000000     0.236200000000     0          
A_3      C      0.177800000000     0.799600000000     0.003100000000     0          
A_3      C      0.154300000000     0.208100000000     0.483900000000     0          
A_3      C      0.475900000000     0.345400000000     0.924800000000     0          
A_3      C      0.103500000000     0.944200000000     0.665700000000     0          
A_3      C      0.388100000000     0.498100000000     0.864200000000     0          
A_3      C      0.804200000000     0.764700000000     0.582400000000     0          
A_3      C      0.079400000000     0.665400000000     0.885800000000     0          
A_3      C      0.947300000000     0.077100000000     0.920500000000     0          
A_3      C      0.099900000000     0.377200000000     0.291100000000     0          
A_3      C      0.616700000000     0.583600000000     0.344800000000     0          
A_3      C      0.011300000000     0.512900000000     0.836900000000     0          
A_3      C      0.838900000000     0.235200000000     0.123900000000     0          
A_3      C      0.191200000000     0.101800000000     0.201500000000     0          
A_3      C      0.794200000000     0.825500000000     0.166700000000     0          
A_3      C      0.107800000000     0.912500000000     0.031300000000     0          
A_3      C      0.037100000000     0.352800000000     0.810500000000     0          
A_3      C      0.868800000000     0.410800000000     0.971300000000     0          
A_3      C      0.490700000000     0.192100000000     0.685900000000     0          
A_3      C      0.467500000000     0.507500000000     0.507500000000     0          
A_3      C      0.716000000000     0.612600000000     0.719000000000     0          
A_3      C      0.955200000000     0.331600000000     0.115500000000     0          
A_3      C      0.310200000000     0.622800000000     0.192500000000     0          
A_3      C      0.041900000000     0.450800000000     0.477400000000     0          
A_3      C      0.702700000000     0.089400000000     0.998300000000     0          
A_3      C      0.568500000000     0.891600000000     0.072500000000     0          
A_3      C      0.483100000000     0.371900000000     0.804100000000     0          
A_3      C      0.391300000000     0.677600000000     0.007100000000     0          
A_3      C      0.134200000000     0.059000000000     0.851300000000     0          
A_3      C      0.089900000000     0.371400000000     0.869900000000     0          
A_3      C      0.396800000000     0.965100000000     0.489900000000     0          
A_3      C      0.712700000000     0.842800000000     0.067600000000     0          
A_3      C      0.878700000000     0.967500000000     0.385900000000     0          
A_3      C      0.198300000000     0.065900000000     0.848500000000     0          
A_3      C      0.456400000000     0.259700000000     0.172500000000     0          
A_3      C      0.636500000000     0.213800000000     0.231700000000     0          
A_3      C      0.896900000000     0.071600000000     0.815100000000     0          
A_3      C      0.994600000000     0.105100000000     0.437300000000     0          
A_3      C      0.160100000000     0.553600000000     0.144100000000     0          
A_3      C      0.248300000000     0.063300000000     0.602300000000     0          
A_3      C      0.885200000000     0.328400000000     0.253000000000     0          
A_3      C      0.773700000000     0.920800000000     0.834500000000     0          
A_3      C      0.039800000000     0.183500000000     0.698200000000     0          
A_3      C      0.516500000000     0.445500000000     0.666900000000     0          
A_3      C      0.263000000000     0.981400000000     0.085000000000     0          
A_3      C      0.601000000000     0.874300000000     0.449000000000     0          
A_3      C      0.963600000000     0.465100000000     0.788500000000     0          
A_3      C      0.232300000000     0.449300000000     0.281700000000     0          
A_3      C      0.388700000000     0.084100000000     0.290500000000     0          
A_3      C      0.438900000000     0.934700000000     0.503100000000     0          
A_3      C      0.173300000000     0.909000000000     0.238000000000     0          
A_3      C      0.413600000000     0.415200000000     0.242700000000     0          
A_3      C      0.720900000000     0.680800000000     0.702900000000     0          
A_3      C      0.575000000000     0.571700000000     0.694600000000     0          
A_3      C      0.487800000000     0.296900000000     0.106900000000     0          
A_3      C      0.028100000000     0.311200000000     0.421200000000     0          
A_3      C      0.525500000000     0.245200000000     0.233300000000     0          
A_3      C      0.116200000000     0.393500000000     0.123700000000     0          
A_3      C      0.496400000000     0.056300000000     0.234300000000     0          
A_3      C      0.869200000000     0.009200000000     0.038900000000     0          
A_3      C      0.247600000000     0.004800000000     0.240700000000     0          
A_3      C      0.349800000000     0.509300000000     0.885800000000     0          
A_3      C      0.567200000000     0.201000000000     0.013500000000     0          
A_3      C      0.042000000000     0.396700000000     0.050400000000     0          
A_3      C      0.369200000000     0.595200000000     0.042900000000     0          
A_3      C      0.058000000000     0.524800000000     0.764800000000     0          
A_3      C      0.643800000000     0.746400000000     0.351500000000     0          
A_3      C      0.464400000000     0.833800000000     0.840300000000     0          
A_3      C      0.984700000000     0.073600000000     0.712000000000     0          
A_3      C      0.792800000000     0.113200000000     0.536300000000     0          
A_3      C      0.513200000000     0.690400000000     0.872200000000     0          
A_3      C      0.646400000000     0.546900000000     0.411900000000     0          
A_3      C      0.019700000000     0.350600000000     0.074500000000     0          
A_3      C      0.264700000000     0.351500000000     0.769500000000     0          
A_3      C      0.814800000000     0.531800000000     0.188700000000     0          
A_3      C      0.533300000000     0.384400000000     0.665500000000     0          
A_3      C      0.752000000000     0.976500000000     0.620000000000     0          
A_3      C      0.611000000000     0.510100000000     0.048600000000     0          
A_3      C      0.173800000000     0.574200000000     0.789900000000     0          
A_3      C      0.785600000000     0.661100000000     0.613900000000     0          
A_3      C      0.934000000000     0.786800000000     0.561900000000     0          
A_3      C      0.804600000000     0.788900000000     0.725400000000     0          
A_3      C      0.777800000000     0.183900000000     0.748400000000     0          
A_3      C      0.946200000000     0.331700000000     0.994500000000     0          
A_3      C      0.928100000000     0.778700000000     0.536500000000     0          
A_3      C      0.352500000000     0.955000000000     0.342700000000     0          
A_3      C      0.829100000000     0.249400000000     0.425400000000     0          
A_3      C      0.216800000000     0.495700000000     0.953400000000     0          
A_3      C      0.747500000000     0.457400000000     0.542500000000     0          
A_3      C      0.248400000000     0.836800000000     0.036400000000     0          
A_3      C      0.177800000000     0.086500000000     0.684900000000     0          
A_3      C      0.511900000000     0.938100000000     0.379900000000     0          
A_3      C      0.303300000000     0.978800000000     0.668700000000     0          
A_3      C      0.159600000000     0.133000000000     0.035000000000     0          
A_3      C      0.653400000000     0.601400000000     0.735600000000     0          
A_3      C      0.321100000000     0.809800000000     0.664800000000     0          
A_3      C      0.284500000000     0.060000000000     0.854100000000     0          
A_3      C      0.604800000000     0.912100000000     0.876700000000     0          
A_3      C      0.376700000000     0.942400000000     0.059400000000     0          
A_3      C      0.961600000000     0.893700000000     0.267100000000     0          
A_3      C      0.008000000000     0.391800000000     0.828900000000     0          
A_3      C      0.807800000000     0.211800000000     0.396300000000     0          
A_3      C      0.653700000000     0.202200000000     0.910800000000     0          
A_3      C      0.190600000000     0.652700000000     0.660000000000     0          
A_3      C      0.865000000000     0.361700000000     0.593900000000     0          
A_3      C      0.229800000000     0.482400000000     0.366000000000     0          
A_3      C      0.771600000000     0.373400000000     0.203300000000     0          
A_3      C      0.576900000000     0.974500000000     0.961100000000     0          
A_3      C      0.884500000000     0.147100000000     0.359800000000     0          
A_3      C      0.839000000000     0.605200000000     0.895600000000     0          
A_3      C      0.871000000000     0.794300000000     0.707100000000     0          
A_3      C      0.432600000000     0.777700000000     0.162800000000     0          
A_3      C      0.899500000000     0.115700000000     0.532300000000     0          
A_3      C      0.904800000000     0.816800000000     0.178100000000     0          
A_3      C      0.730200000000     0.795000000000     0.208500000000     0          
A_3      C      0.222000000000     0.021100000000     0.242100000000     0          
A_3      C      0.794600000000     0.206700000000     0.225500000000     0          
A_3      C      0.489300000000     0.451300000000     0.882400000000     0          
A_3      C      0.903500000000     0.077400000000     0.583000000000     0          
A_3      C      0.066200000000     0.014000000000     0.803200000000     0          
A_3      C      0.270500000000     0.893100000000     0.735200000000     0          
A_3      C      0.360000000000     0.595800000000     0.532400000000     0          
A_3      C      0.105900000000     0.004700000000     0.070000000000     0          
A_3      C      0.537000000000     0.420200000000     0.089300000000     0          
A_3      C      0.983700000000     0.965000000000     0.040600000000     0          
A_3      C      0.868800000000     0.981500000000     0.219400000000     0          
A_3      C      0.341800000000     0.717400000000     0.389600000000     0          
A_3      C      0.230500000000     0.920900000000     0.364300000000     0          
A_3      C      0.264100000000     0.865400000000     0.241100000000     0          
A_3      C      0.968100000000     0.527700000000     0.706600000000     0          
A_3      C      0.338500000000     0.444500000000     0.136600000000     0          
A_3      C      0.279000000000     0.734100000000     0.855300000000     0          
A_3      C      0.550100000000     0.978000000000     0.285300000000     0          
A_3      C      0.661500000000     0.107200000000     0.906100000000     0          
A_3      C      0.575400000000     0.437700000000     0.342000000000     0          
A_3      C      0.197900000000     0.399100000000     0.410900000000     0          
A_3      C      0.063200000000     0.225100000000     0.472300000000     0          
A_3      C      0.523600000000     0.588100000000     0.789700000000     0          
A_3      C      0.239500000000     0.865200000000     0.181000000000     0          
A_3      C      0.750000000000     0.565000000000     0.214000000000     0          
A_3      C      0.771600000000     0.296500000000     0.832500000000     0          
A_3      C      0.259900000000     0.974100000000     0.599900000000     0          
A_3      C      0.658900000000     0.277600000000     0.931300000000     0          
A_3      C      0.931600000000     0.168900000000     0.684900000000     0          
A_3      C      0.267900000000     0.233000000000     0.017600000000     0          
A_3      C      0.113200000000     0.444300000000     0.094400000000     0          
A_3      C      0.129500000000     0.213500000000     0.314400000000     0          
A_3      C      0.058200000000     0.893600000000     0.450900000000     0          
A_3      C      0.470400000000     0.757800000000     0.205700000000     0          
A_3      C      0.536200000000     0.686800000000     0.873400000000     0          
A_3      C      0.416500000000     0.233300000000     0.717200000000     0          
A_3      C      0.100300000000     0.054600000000     0.842600000000     0          
A_3      C      0.153400000000     0.238500000000     0.193100000000     0          
A_3      C      0.289100000000     0.743000000000     0.412200000000     0          
A_3      C      0.009000000000     0.998900000000     0.018800000000     0          
A_3      C      0.499600000000     0.593600000000     0.441800000000     0          
A_3      C      0.356600000000     0.244800000000     0.134600000000     0          
A_3      C      0.621300000000     0.892500000000     0.365000000000     0          
A_3      C      0.696600000000     0.340300000000     0.053800000000     0          
A_3      C      0.624000000000     0.558200000000     0.173200000000     0          
A_3      C      0.418200000000     0.435300000000     0.436700000000     0          
A_3      C      0.551600000000     0.376600000000     0.425000000000     0          
A_3      C      0.610400000000     0.157400000000     0.197900000000     0          
A_3      C      0.869000000000     0.484300000000     0.631700000000     0          
A_3      C      0.706000000000     0.460300000000     0.161900000000     0          
A_3      C      0.079200000000     0.258000000000     0.854200000000     0          
A_3      C      0.138800000000     0.185600000000     0.257200000000     0          
A_3      C      0.764100000000     0.840200000000     0.155900000000     0          
A_3      C      0.722100000000     0.236200000000     0.236300000000     0          
A_3      C      0.988000000000     0.676000000000     0.615800000000     0          
A_3      C      0.255700000000     0.059400000000     0.386200000000     0          
A_3      C      0.364200000000     0.320800000000     0.827000000000     0          
A_3      C      0.541400000000     0.339000000000     0.552800000000     0          
A_3      C      0.306300000000     0.390300000000     0.143500000000     0          
A_3      C      0.412400000000     0.233100000000     0.942700000000     0          
A_3      C      0.179300000000     0.767100000000     0.433500000000     0          
A_3      C      0.049000000000     0.425900000000     0.699200000000     0          
A_3      C      0.193000000000     0.981000000000     0.125400000000     0          
A_3      C      0.364800000000     0.560300000000     0.940400000000     0          
A_3      C      0.861600000000     0.031600000000     0.327200000000     0          
A_3      C      0.111900000000     0.800000000000     0.078800000000     0          
A_3      C      0.357600000000     0.468200000000     0.110900000000     0          
A_3      C      0.288800000000     0.970100000000     0.039700000000     0          
A_3      C      0.498000000000     0.020600000000     0.117300000000     0          
A_3      C      0.114300000000     0.809500000000     0.701900000000     0          
A_3      C      0.405600000000     0.467300000000     0.431000000000     0          
A_3      C      0.926800000000     0.412300000000     0.746400000000     0          
A_3      C      0.225300000000     0.541700000000     0.099900000000     0          
A_3      C      0.299000000000     0.433900000000     0.610700000000     0          
A_3      C      0.774200000000     0.718000000000     0.099100000000     0          
A_3      C      0.074800000000     0.134700000000     0.686200000000     0          
A_3      C      0.860700000000     0.434300000000     0.824200000000     0          
A_3      C      0.102300000000     0.041100000000     0.263900000000     0          
A_3      C      0.872700000000     0.482600000000     0.861200000000     0          
A_3      C      0.503700000000     0.003300000000     0.386700000000     0          
A_3      C      0.595800000000     0.510400000000     0.571000000000     0          
A_3      C      0.474800000000     0.183400000000     0.563500000000     0          
A_3      C      0.326800000000     0.921900000000     0.911300000000     0          
A_3      C      0.994200000000     0.717500000000     0.590800000000     0          
A_3      C      0.270100000000     0.787100000000     0.819700000000     0          
A_3      C      0.687000000000     0.029300000000     0.820300000000     0          
A_3      C      0.831900000000     0.940700000000     0.638200000000     0          
A_3      C      0.467500000000     0.037300000000     0.842800000000     0          
A_3      C      0.520300000000     0.228800000000     0.499100000000     0          
A_3      C      0.279000000000     0.106900000000     0.956700000000     0          
A_3      C      0.301700000000     0.913800000000     0.471100000000     0          
A_3      C      0.460300000000     0.469500000000     0.106600000000     0          
A_3      C      0.311000000000     0.839500000000     0.679600000000     0          
A_3      C      0.045200000000     0.715000000000     0.153100000000     0          
A_3      C      0.900100000000     0.949600000000     0.817800000000     0          
A_3      C      0.669000000000     0.558900000000     0.693300000000     0          
A_3      C      0.931600000000     0.789500000000     0.137900000000     0          
A_3      C      0.415500000000     0.801500000000     0.360800000000     0          
A_3      C      0.804100000000     0.155500000000     0.647000000000     0          
A_3      C      0.019300000000     0.993300000000     0.976300000000     0          
A_3      C      0.834700000000     0.985200000000     0.811200000000     0          
A_3      C      0.691800000000     0.039700000000     0.660000000000     0          
A_3      C      0.246000000000     0.141700000000     0.774100000000     0          
A_3      C      0.691000000000     0.596800000000     0.298000000000     0          
A_3      C      0.482100000000     0.054000000000     0.403600000000     0          
A_3      C      0.599800000000     0.976000000000     0.840900000000     0          
A_3      C      0.919500000000     0.995200000000     0.904300000000     0          
A_3      C      0.425900000000     0.047300000000     0.116900000000     0          


