data_15.4.2016_10.52.16_3.4_0.2_5-0

_audit_creation_method RASPA-1.0
_audit_creation_date 2016-4-15
_audit_author_name 'Alec Kaija'

_cell_length_a    25.78
_cell_length_b    17.611
_cell_length_c    39.8141
_cell_angle_alpha 90
_cell_angle_beta  90
_cell_angle_gamma 90
_cell_volume      18076.1

_symmetry_cell_setting          triclinic
_symmetry_space_group_name_Hall 'P 1'
_symmetry_space_group_name_H-M  'P 1'
_symmetry_Int_Tables_number     1

_symmetry_equiv_pos_as_xyz 'x,y,z'

loop_
_atom_site_label
_atom_site_type_symbol
_atom_site_fract_x
_atom_site_fract_y
_atom_site_fract_z
_atom_site_charge
A_1      C      0.849400000000     0.585300000000     0.708200000000     0          
A_3      C      0.267000000000     0.431700000000     0.014700000000     0          
A_2      C      0.823400000000     0.426400000000     0.658300000000     0          
A_3      C      0.399800000000     0.015000000000     0.769300000000     0          
A_2      C      0.565000000000     0.453500000000     0.781600000000     0          
A_1      C      0.812800000000     0.102900000000     0.920800000000     0          
A_1      C      0.603600000000     0.184700000000     0.272300000000     0          
A_2      C      0.173300000000     0.930400000000     0.796200000000     0          
A_3      C      0.431600000000     0.530000000000     0.336200000000     0          
A_0      C      0.437300000000     0.193900000000     0.772100000000     0          
A_0      C      0.772300000000     0.281000000000     0.143500000000     0          
A_3      C      0.045700000000     0.585500000000     0.663500000000     0          
A_1      C      0.767000000000     0.227300000000     0.635000000000     0          
A_0      C      0.681400000000     0.237700000000     0.884800000000     0          
A_1      C      0.825100000000     0.036800000000     0.921900000000     0          
A_1      C      0.244000000000     0.583800000000     0.388800000000     0          
A_3      C      0.972200000000     0.058300000000     0.254000000000     0          
A_1      C      0.310200000000     0.423500000000     0.270900000000     0          
A_2      C      0.378200000000     0.836100000000     0.829100000000     0          
A_0      C      0.472000000000     0.746000000000     0.417900000000     0          
A_2      C      0.333000000000     0.141200000000     0.209300000000     0          
A_0      C      0.816200000000     0.978900000000     0.049200000000     0          
A_0      C      0.066100000000     0.058600000000     0.172500000000     0          
A_3      C      0.228300000000     0.488200000000     0.408500000000     0          
A_2      C      0.651200000000     0.570900000000     0.866300000000     0          
A_2      C      0.937600000000     0.053400000000     0.218700000000     0          
A_1      C      0.135300000000     0.615000000000     0.428400000000     0          
A_3      C      0.159300000000     0.629400000000     0.477200000000     0          
A_1      C      0.955900000000     0.045500000000     0.691000000000     0          
A_3      C      0.346700000000     0.055900000000     0.749200000000     0          
A_3      C      0.252000000000     0.120400000000     0.495400000000     0          
A_2      C      0.038500000000     0.101900000000     0.291100000000     0          
A_2      C      0.331900000000     0.550900000000     0.702100000000     0          
A_1      C      0.775300000000     0.501000000000     0.392500000000     0          
A_2      C      0.457200000000     0.799200000000     0.312100000000     0          
A_3      C      0.245700000000     0.706300000000     0.777200000000     0          
A_1      C      0.679000000000     0.088000000000     0.734600000000     0          
A_1      C      0.503700000000     0.990500000000     0.013200000000     0          
A_1      C      0.262600000000     0.407200000000     0.735800000000     0          
A_3      C      0.284800000000     0.249600000000     0.234100000000     0          
A_0      C      0.118000000000     0.819500000000     0.210500000000     0          
A_0      C      0.434800000000     0.507500000000     0.278700000000     0          
A_0      C      0.974600000000     0.786700000000     0.921800000000     0          
A_0      C      0.265900000000     0.597500000000     0.400000000000     0          
A_0      C      0.656600000000     0.616500000000     0.902000000000     0          
A_3      C      0.487300000000     0.669200000000     0.569500000000     0          
A_1      C      0.963100000000     0.533800000000     0.923700000000     0          
A_0      C      0.515000000000     0.005800000000     0.103900000000     0          
A_3      C      0.425200000000     0.748600000000     0.154100000000     0          
A_0      C      0.054000000000     0.408100000000     0.423700000000     0          
A_3      C      0.860600000000     0.398800000000     0.101500000000     0          
A_3      C      0.907000000000     0.096500000000     0.988700000000     0          
A_3      C      0.720100000000     0.792300000000     0.036400000000     0          
A_2      C      0.363700000000     0.828300000000     0.175800000000     0          
A_3      C      0.690600000000     0.368000000000     0.660700000000     0          
A_2      C      0.996000000000     0.923300000000     0.597900000000     0          
A_0      C      0.975600000000     0.043600000000     0.740700000000     0          
A_3      C      0.652900000000     0.134000000000     0.242600000000     0          
A_1      C      0.883800000000     0.362200000000     0.556600000000     0          
A_2      C      0.378000000000     0.639700000000     0.787800000000     0          
A_0      C      0.594200000000     0.732100000000     0.593600000000     0          
A_3      C      0.618200000000     0.982800000000     0.372800000000     0          
A_3      C      0.378300000000     0.063200000000     0.798400000000     0          
A_2      C      0.298100000000     0.678900000000     0.148800000000     0          
A_3      C      0.773200000000     0.986800000000     0.055100000000     0          
A_3      C      0.729100000000     0.952000000000     0.918000000000     0          
A_0      C      0.858200000000     0.232800000000     0.534600000000     0          
A_3      C      0.674500000000     0.922500000000     0.957800000000     0          
A_0      C      0.145200000000     0.347600000000     0.150300000000     0          
A_2      C      0.029700000000     0.639000000000     0.259700000000     0          
A_3      C      0.943600000000     0.090700000000     0.956000000000     0          
A_1      C      0.679600000000     0.240600000000     0.129600000000     0          
A_0      C      0.772900000000     0.132400000000     0.299100000000     0          
A_1      C      0.536500000000     0.438600000000     0.263300000000     0          
A_0      C      0.118900000000     0.950000000000     0.190100000000     0          
A_2      C      0.023700000000     0.955600000000     0.398300000000     0          
A_1      C      0.566600000000     0.901400000000     0.022500000000     0          
A_1      C      0.786900000000     0.977400000000     0.710400000000     0          
A_3      C      0.721200000000     0.707300000000     0.888600000000     0          
A_2      C      0.198500000000     0.501200000000     0.588600000000     0          
A_3      C      0.742800000000     0.440500000000     0.357000000000     0          
A_2      C      0.998700000000     0.908100000000     0.063600000000     0          
A_3      C      0.421000000000     0.379400000000     0.714800000000     0          
A_0      C      0.404400000000     0.277800000000     0.138100000000     0          
A_0      C      0.266400000000     0.556400000000     0.148000000000     0          
A_0      C      0.606200000000     0.249900000000     0.908900000000     0          
A_0      C      0.301000000000     0.366100000000     0.903600000000     0          
A_0      C      0.196900000000     0.540400000000     0.619700000000     0          
A_3      C      0.525100000000     0.484800000000     0.899800000000     0          
A_2      C      0.018000000000     0.048400000000     0.868300000000     0          
A_0      C      0.286700000000     0.905200000000     0.693200000000     0          
A_0      C      0.713200000000     0.741900000000     0.218300000000     0          
A_2      C      0.309000000000     0.235100000000     0.243600000000     0          
A_0      C      0.135300000000     0.172100000000     0.474800000000     0          
A_1      C      0.294200000000     0.411000000000     0.360500000000     0          
A_2      C      0.657600000000     0.369900000000     0.651800000000     0          
A_0      C      0.719300000000     0.797200000000     0.326500000000     0          
A_2      C      0.674900000000     0.143200000000     0.334500000000     0          
A_2      C      0.563800000000     0.615400000000     0.080700000000     0          
A_1      C      0.293600000000     0.369000000000     0.519700000000     0          
A_3      C      0.233300000000     0.203800000000     0.821500000000     0          
A_1      C      0.427000000000     0.201800000000     0.177200000000     0          
A_1      C      0.869600000000     0.433200000000     0.164300000000     0          
A_2      C      0.399300000000     0.062400000000     0.008300000000     0          
A_1      C      0.016500000000     0.139400000000     0.235700000000     0          
A_0      C      0.177400000000     0.456300000000     0.055100000000     0          
A_3      C      0.147800000000     0.689000000000     0.619700000000     0          
A_3      C      0.993900000000     0.854800000000     0.267100000000     0          
A_1      C      0.940300000000     0.950300000000     0.631600000000     0          
A_3      C      0.839500000000     0.368400000000     0.047100000000     0          
A_2      C      0.004900000000     0.923000000000     0.721700000000     0          
A_1      C      0.931400000000     0.048400000000     0.345200000000     0          
A_1      C      0.919300000000     0.294000000000     0.690300000000     0          
A_1      C      0.047600000000     0.977300000000     0.013900000000     0          
A_3      C      0.550300000000     0.077200000000     0.436600000000     0          
A_1      C      0.104600000000     0.209000000000     0.434300000000     0          
A_2      C      0.416700000000     0.024200000000     0.477100000000     0          
A_2      C      0.631500000000     0.491100000000     0.017700000000     0          
A_0      C      0.222300000000     0.538100000000     0.584900000000     0          
A_0      C      0.932400000000     0.301400000000     0.261200000000     0          
A_0      C      0.558900000000     0.771800000000     0.386800000000     0          
A_0      C      0.647800000000     0.954700000000     0.840400000000     0          
A_1      C      0.196800000000     0.077200000000     0.009300000000     0          
A_1      C      0.719300000000     0.648700000000     0.811500000000     0          
A_2      C      0.525400000000     0.378000000000     0.703900000000     0          
A_0      C      0.626700000000     0.882800000000     0.082800000000     0          
A_1      C      0.908200000000     0.444400000000     0.255100000000     0          
A_2      C      0.898400000000     0.448300000000     0.993400000000     0          
A_3      C      0.921900000000     0.505900000000     0.162600000000     0          
A_1      C      0.212600000000     0.748800000000     0.434300000000     0          
A_1      C      0.520700000000     0.005400000000     0.676300000000     0          
A_3      C      0.929200000000     0.545700000000     0.784700000000     0          
A_1      C      0.396900000000     0.355100000000     0.057500000000     0          
A_1      C      0.954200000000     0.666100000000     0.474700000000     0          
A_3      C      0.161100000000     0.281900000000     0.587000000000     0          
A_2      C      0.322700000000     0.654900000000     0.033500000000     0          
A_1      C      0.436800000000     0.576200000000     0.184700000000     0          
A_3      C      0.888100000000     0.038500000000     0.815400000000     0          
A_1      C      0.880500000000     0.958000000000     0.135500000000     0          
A_2      C      0.394700000000     0.271100000000     0.016000000000     0          
A_3      C      0.178600000000     0.927400000000     0.475600000000     0          
A_2      C      0.248400000000     0.729900000000     0.244100000000     0          
A_2      C      0.260400000000     0.356500000000     0.742000000000     0          
A_3      C      0.937600000000     0.560200000000     0.551400000000     0          
A_1      C      0.464000000000     0.724900000000     0.927800000000     0          
A_3      C      0.614200000000     0.511000000000     0.618500000000     0          
A_0      C      0.707000000000     0.946100000000     0.391400000000     0          
A_2      C      0.411800000000     0.578100000000     0.391400000000     0          
A_1      C      0.559100000000     0.421200000000     0.100200000000     0          
A_0      C      0.632800000000     0.028400000000     0.590500000000     0          
A_3      C      0.086900000000     0.146700000000     0.109800000000     0          
A_2      C      0.148100000000     0.430900000000     0.542100000000     0          
A_0      C      0.752000000000     0.088400000000     0.736600000000     0          
A_3      C      0.988100000000     0.011600000000     0.847400000000     0          
A_2      C      0.408300000000     0.282100000000     0.528900000000     0          
A_1      C      0.582300000000     0.959900000000     0.622800000000     0          
A_3      C      0.858500000000     0.466200000000     0.091600000000     0          
A_1      C      0.155300000000     0.599000000000     0.900300000000     0          
A_0      C      0.065900000000     0.368200000000     0.327300000000     0          
A_2      C      0.129800000000     0.562300000000     0.139400000000     0          
A_2      C      0.829100000000     0.802100000000     0.293800000000     0          
A_3      C      0.082800000000     0.953900000000     0.087900000000     0          
A_0      C      0.786300000000     0.712200000000     0.402800000000     0          
A_2      C      0.699100000000     0.340200000000     0.914000000000     0          
A_0      C      0.304600000000     0.265100000000     0.141300000000     0          
A_3      C      0.841400000000     0.579500000000     0.868500000000     0          
A_2      C      0.125600000000     0.693700000000     0.244000000000     0          
A_1      C      0.038000000000     0.366200000000     0.576600000000     0          
A_3      C      0.468800000000     0.458000000000     0.778200000000     0          
A_0      C      0.990900000000     0.045300000000     0.493400000000     0          
A_2      C      0.743300000000     0.416200000000     0.419900000000     0          
A_1      C      0.661800000000     0.000500000000     0.578900000000     0          
A_2      C      0.529100000000     0.234500000000     0.749800000000     0          
A_0      C      0.713600000000     0.542800000000     0.931900000000     0          
A_2      C      0.807600000000     0.547300000000     0.264900000000     0          
A_3      C      0.605600000000     0.448700000000     0.891600000000     0          
A_3      C      0.660600000000     0.346000000000     0.046300000000     0          
A_1      C      0.976700000000     0.323100000000     0.318100000000     0          
A_1      C      0.172400000000     0.846500000000     0.893400000000     0          
A_1      C      0.138200000000     0.066700000000     0.088000000000     0          
A_0      C      0.029100000000     0.883000000000     0.448000000000     0          
A_2      C      0.270700000000     0.829000000000     0.046700000000     0          
A_2      C      0.447200000000     0.472400000000     0.208500000000     0          
A_2      C      0.883300000000     0.752700000000     0.495100000000     0          
A_3      C      0.068700000000     0.542400000000     0.171200000000     0          
A_0      C      0.237300000000     0.999700000000     0.400300000000     0          
A_3      C      0.362300000000     0.446700000000     0.350200000000     0          
A_1      C      0.960900000000     0.304300000000     0.800600000000     0          
A_2      C      0.353700000000     0.957000000000     0.968500000000     0          
A_0      C      0.314600000000     0.955000000000     0.182800000000     0          
A_3      C      0.055300000000     0.250200000000     0.339000000000     0          
A_3      C      0.865300000000     0.608400000000     0.486100000000     0          
A_1      C      0.629900000000     0.231600000000     0.742800000000     0          
A_0      C      0.250000000000     0.649100000000     0.582800000000     0          
A_1      C      0.990000000000     0.675900000000     0.696200000000     0          
A_2      C      0.864700000000     0.486800000000     0.275400000000     0          
A_2      C      0.522700000000     0.885100000000     0.046100000000     0          
A_3      C      0.752900000000     0.198100000000     0.265000000000     0          
A_2      C      0.555400000000     0.956100000000     0.845400000000     0          
A_2      C      0.081100000000     0.726400000000     0.783900000000     0          
A_2      C      0.054300000000     0.120800000000     0.188800000000     0          
A_1      C      0.358700000000     0.750500000000     0.630500000000     0          
A_1      C      0.373600000000     0.693400000000     0.756700000000     0          
A_2      C      0.435500000000     0.796800000000     0.515700000000     0          
A_0      C      0.554400000000     0.651400000000     0.041200000000     0          
A_2      C      0.742700000000     0.184300000000     0.216300000000     0          
A_3      C      0.088900000000     0.861400000000     0.232700000000     0          
A_2      C      0.431200000000     0.661400000000     0.802900000000     0          
A_3      C      0.242800000000     0.814800000000     0.547200000000     0          
A_1      C      0.950400000000     0.665100000000     0.597400000000     0          
A_2      C      0.025100000000     0.272900000000     0.036000000000     0          
A_0      C      0.098000000000     0.634500000000     0.364100000000     0          
A_2      C      0.855100000000     0.382600000000     0.174000000000     0          
A_2      C      0.367000000000     0.157100000000     0.197400000000     0          
A_2      C      0.814900000000     0.480500000000     0.489800000000     0          
A_3      C      0.094800000000     0.991400000000     0.969800000000     0          
A_1      C      0.492400000000     0.954300000000     0.514500000000     0          
A_1      C      0.390900000000     0.029100000000     0.871000000000     0          
A_1      C      0.320100000000     0.113400000000     0.138400000000     0          
A_0      C      0.535200000000     0.860300000000     0.746500000000     0          
A_1      C      0.735500000000     0.786100000000     0.762500000000     0          
A_0      C      0.893300000000     0.159400000000     0.289300000000     0          
A_0      C      0.984400000000     0.802100000000     0.638300000000     0          
A_1      C      0.690200000000     0.126600000000     0.399900000000     0          
A_3      C      0.207200000000     0.767300000000     0.074500000000     0          
A_3      C      0.069200000000     0.732200000000     0.878600000000     0          
A_0      C      0.631500000000     0.726800000000     0.302300000000     0          
A_3      C      0.589600000000     0.788900000000     0.373900000000     0          
A_0      C      0.601300000000     0.678900000000     0.628600000000     0          
A_1      C      0.676500000000     0.860200000000     0.031700000000     0          
A_0      C      0.517800000000     0.774300000000     0.882700000000     0          
A_3      C      0.011700000000     0.497700000000     0.578800000000     0          
A_1      C      0.765000000000     0.443800000000     0.410800000000     0          
A_2      C      0.610200000000     0.048700000000     0.589900000000     0          
A_2      C      0.326600000000     0.536700000000     0.512000000000     0          
A_0      C      0.267400000000     0.094600000000     0.351400000000     0          
A_3      C      0.399000000000     0.768800000000     0.308100000000     0          
A_2      C      0.356000000000     0.410100000000     0.360100000000     0          
A_2      C      0.270900000000     0.572000000000     0.546600000000     0          
A_1      C      0.235900000000     0.379100000000     0.776900000000     0          
A_0      C      0.025200000000     0.595500000000     0.403900000000     0          
A_2      C      0.004700000000     0.803800000000     0.408300000000     0          
A_1      C      0.692900000000     0.949400000000     0.630200000000     0          
A_2      C      0.209800000000     0.024700000000     0.301200000000     0          
A_2      C      0.336700000000     0.806000000000     0.630800000000     0          
A_0      C      0.436200000000     0.921100000000     0.579000000000     0          
A_1      C      0.416000000000     0.336800000000     0.368300000000     0          
A_1      C      0.472000000000     0.445100000000     0.138700000000     0          
A_1      C      0.978200000000     0.154100000000     0.010700000000     0          
A_2      C      0.973100000000     0.100400000000     0.205500000000     0          
A_1      C      0.772200000000     0.918900000000     0.069700000000     0          
A_2      C      0.873200000000     0.421600000000     0.960400000000     0          
A_2      C      0.524400000000     0.821700000000     0.303000000000     0          
A_3      C      0.565500000000     0.968500000000     0.013600000000     0          
A_3      C      0.582800000000     0.218300000000     0.335100000000     0          
A_1      C      0.834800000000     0.054100000000     0.379600000000     0          
A_3      C      0.938800000000     0.022500000000     0.644600000000     0          
A_3      C      0.769200000000     0.774300000000     0.834800000000     0          
A_2      C      0.135900000000     0.589900000000     0.710300000000     0          
A_0      C      0.822500000000     0.111400000000     0.834200000000     0          
A_0      C      0.687400000000     0.954200000000     0.808300000000     0          
A_2      C      0.217700000000     0.668800000000     0.561600000000     0          
A_1      C      0.617200000000     0.384800000000     0.169700000000     0          
A_3      C      0.655900000000     0.864500000000     0.326900000000     0          
A_2      C      0.546500000000     0.940300000000     0.045100000000     0          
A_3      C      0.583700000000     0.228500000000     0.563000000000     0          
A_1      C      0.055000000000     0.889700000000     0.054000000000     0          
A_1      C      0.622700000000     0.102200000000     0.995400000000     0          
A_0      C      0.068100000000     0.114400000000     0.966000000000     0          
A_0      C      0.786300000000     0.100600000000     0.318700000000     0          
A_3      C      0.003300000000     0.655100000000     0.378100000000     0          
A_0      C      0.818000000000     0.897900000000     0.847100000000     0          
A_3      C      0.961600000000     0.505200000000     0.012200000000     0          
A_0      C      0.361700000000     0.025500000000     0.797900000000     0          
A_1      C      0.664100000000     0.179300000000     0.887900000000     0          
A_0      C      0.318300000000     0.845600000000     0.360300000000     0          
A_2      C      0.262600000000     0.723500000000     0.715400000000     0          
A_1      C      0.819100000000     0.320500000000     0.654000000000     0          
A_1      C      0.499800000000     0.214500000000     0.616400000000     0          
A_3      C      0.136600000000     0.117300000000     0.038800000000     0          
A_2      C      0.498600000000     0.527800000000     0.233100000000     0          
A_1      C      0.113600000000     0.343400000000     0.206200000000     0          
A_2      C      0.633000000000     0.207000000000     0.180300000000     0          
A_1      C      0.730700000000     0.697300000000     0.860400000000     0          
A_0      C      0.125000000000     0.493100000000     0.643300000000     0          
A_0      C      0.443500000000     0.802800000000     0.529200000000     0          
A_2      C      0.308400000000     0.380300000000     0.549400000000     0          
A_0      C      0.854400000000     0.715400000000     0.376100000000     0          
A_2      C      0.384500000000     0.363900000000     0.575600000000     0          
A_3      C      0.473800000000     0.185900000000     0.000500000000     0          
A_1      C      0.148600000000     0.737200000000     0.710200000000     0          
A_2      C      0.685300000000     0.130100000000     0.370700000000     0          
A_2      C      0.329200000000     0.202800000000     0.482700000000     0          
A_0      C      0.219000000000     0.417600000000     0.963800000000     0          
A_2      C      0.504800000000     0.738400000000     0.608800000000     0          
A_2      C      0.866100000000     0.682900000000     0.300500000000     0          
A_1      C      0.044500000000     0.375500000000     0.409000000000     0          
A_3      C      0.422900000000     0.871700000000     0.926800000000     0          
A_2      C      0.283800000000     0.167700000000     0.976100000000     0          
A_0      C      0.494300000000     0.812700000000     0.239000000000     0          
A_1      C      0.117200000000     0.571400000000     0.049300000000     0          
A_1      C      0.310100000000     0.439400000000     0.001200000000     0          
A_0      C      0.660900000000     0.683200000000     0.365300000000     0          
A_2      C      0.163000000000     0.916700000000     0.205100000000     0          
A_1      C      0.142100000000     0.457700000000     0.983900000000     0          
A_3      C      0.810800000000     0.395800000000     0.269100000000     0          
A_3      C      0.447100000000     0.072200000000     0.073300000000     0          
A_1      C      0.699200000000     0.019600000000     0.183900000000     0          
A_3      C      0.509800000000     0.248200000000     0.463800000000     0          
A_2      C      0.336900000000     0.539300000000     0.443700000000     0          
A_0      C      0.507400000000     0.582000000000     0.881600000000     0          
A_1      C      0.090400000000     0.220100000000     0.884000000000     0          
A_0      C      0.335600000000     0.048600000000     0.360200000000     0          
A_0      C      0.827400000000     0.690200000000     0.746000000000     0          
A_2      C      0.282800000000     0.344900000000     0.688600000000     0          
A_3      C      0.581300000000     0.230300000000     0.584000000000     0          
A_2      C      0.370900000000     0.882700000000     0.930700000000     0          
A_0      C      0.376300000000     0.490300000000     0.803900000000     0          
A_0      C      0.603700000000     0.475000000000     0.797200000000     0          
A_2      C      0.646500000000     0.145100000000     0.038800000000     0          
A_0      C      0.130500000000     0.938200000000     0.544100000000     0          
A_3      C      0.008300000000     0.980200000000     0.664000000000     0          
A_2      C      0.428300000000     0.216400000000     0.838100000000     0          
A_2      C      0.739500000000     0.936300000000     0.376600000000     0          
A_1      C      0.446700000000     0.743900000000     0.580100000000     0          
A_1      C      0.448700000000     0.391400000000     0.834900000000     0          
A_0      C      0.208600000000     0.182700000000     0.548800000000     0          
A_1      C      0.940100000000     0.306700000000     0.895100000000     0          
A_1      C      0.552000000000     0.343900000000     0.781800000000     0          
A_1      C      0.836000000000     0.544600000000     0.444600000000     0          
A_3      C      0.465100000000     0.844500000000     0.998400000000     0          
A_1      C      0.824000000000     0.940500000000     0.858000000000     0          
A_3      C      0.114300000000     0.525800000000     0.992300000000     0          
A_3      C      0.572400000000     0.893500000000     0.338800000000     0          
A_3      C      0.305300000000     0.647900000000     0.193700000000     0          
A_0      C      0.971200000000     0.209800000000     0.635100000000     0          
A_2      C      0.826300000000     0.984200000000     0.314500000000     0          
A_2      C      0.143000000000     0.007300000000     0.817300000000     0          
A_3      C      0.810800000000     0.910700000000     0.163600000000     0          
A_2      C      0.471100000000     0.374300000000     0.377200000000     0          
A_1      C      0.837200000000     0.866400000000     0.803700000000     0          
A_0      C      0.761700000000     0.923400000000     0.705500000000     0          
A_3      C      0.497000000000     0.863600000000     0.522200000000     0          
A_2      C      0.525000000000     0.160000000000     0.593700000000     0          
A_2      C      0.281300000000     0.212200000000     0.347100000000     0          
A_0      C      0.975700000000     0.526800000000     0.229800000000     0          
A_2      C      0.240500000000     0.576900000000     0.729500000000     0          
A_1      C      0.976700000000     0.008800000000     0.429900000000     0          
A_2      C      0.316000000000     0.396600000000     0.079400000000     0          
A_0      C      0.988300000000     0.707700000000     0.910800000000     0          
A_0      C      0.927000000000     0.429100000000     0.865200000000     0          
A_3      C      0.690100000000     0.705300000000     0.237100000000     0          
A_2      C      0.907400000000     0.968800000000     0.942200000000     0          
A_2      C      0.991200000000     0.150400000000     0.190700000000     0          
A_1      C      0.223700000000     0.328300000000     0.130600000000     0          
A_3      C      0.973800000000     0.195900000000     0.468800000000     0          
A_0      C      0.596200000000     0.651200000000     0.183600000000     0          
A_2      C      0.578800000000     0.089400000000     0.929000000000     0          
A_2      C      0.025000000000     0.850700000000     0.759900000000     0          
A_0      C      0.211400000000     0.305300000000     0.111700000000     0          
A_3      C      0.422900000000     0.186700000000     0.109400000000     0          
A_2      C      0.631800000000     0.873600000000     0.024700000000     0          
A_1      C      0.076000000000     0.475200000000     0.202300000000     0          
A_1      C      0.471700000000     0.290400000000     0.321400000000     0          
A_3      C      0.119600000000     0.537600000000     0.741600000000     0          
A_1      C      0.362200000000     0.548900000000     0.004100000000     0          
A_1      C      0.704100000000     0.984700000000     0.962100000000     0          
A_1      C      0.620400000000     0.257400000000     0.190600000000     0          
A_2      C      0.804000000000     0.079500000000     0.505100000000     0          
A_0      C      0.819500000000     0.325200000000     0.872100000000     0          
A_1      C      0.307400000000     0.070100000000     0.828100000000     0          
A_3      C      0.569500000000     0.080700000000     0.351200000000     0          
A_2      C      0.852800000000     0.879800000000     0.477700000000     0          
A_2      C      0.539200000000     0.953100000000     0.426600000000     0          
A_1      C      0.859200000000     0.456900000000     0.058300000000     0          
A_1      C      0.738600000000     0.425600000000     0.749200000000     0          
A_1      C      0.883500000000     0.376500000000     0.661000000000     0          
A_2      C      0.851600000000     0.320300000000     0.948900000000     0          
A_2      C      0.972400000000     0.310400000000     0.564500000000     0          
A_0      C      0.233500000000     0.733300000000     0.874500000000     0          
A_3      C      0.376900000000     0.904500000000     0.673800000000     0          
A_3      C      0.709500000000     0.889500000000     0.422100000000     0          
A_1      C      0.728600000000     0.433900000000     0.334000000000     0          
A_2      C      0.599800000000     0.412200000000     0.709300000000     0          
A_3      C      0.132600000000     0.205400000000     0.808000000000     0          
A_0      C      0.288200000000     0.859000000000     0.885700000000     0          
A_0      C      0.978600000000     0.099700000000     0.755300000000     0          
A_3      C      0.355300000000     0.652500000000     0.882300000000     0          
A_2      C      0.975500000000     0.966100000000     0.032400000000     0          
A_1      C      0.462800000000     0.339400000000     0.108300000000     0          
A_1      C      0.109800000000     0.929700000000     0.637600000000     0          
A_0      C      0.933400000000     0.509200000000     0.790400000000     0          
A_1      C      0.451600000000     0.457700000000     0.662400000000     0          
A_1      C      0.717000000000     0.741100000000     0.981200000000     0          
A_2      C      0.387600000000     0.771700000000     0.743600000000     0          
A_0      C      0.058500000000     0.005900000000     0.388700000000     0          
A_1      C      0.294600000000     0.990200000000     0.445000000000     0          
A_0      C      0.715500000000     0.963300000000     0.044600000000     0          
A_3      C      0.300200000000     0.551200000000     0.193700000000     0          
A_3      C      0.929500000000     0.208900000000     0.060900000000     0          
A_1      C      0.771900000000     0.908000000000     0.204300000000     0          
A_3      C      0.517600000000     0.330000000000     0.869800000000     0          
A_3      C      0.109200000000     0.261200000000     0.027000000000     0          
A_0      C      0.274600000000     0.901100000000     0.501800000000     0          
A_2      C      0.473000000000     0.533400000000     0.614700000000     0          
A_1      C      0.176600000000     0.587700000000     0.312400000000     0          
A_2      C      0.680800000000     0.646000000000     0.179800000000     0          
A_1      C      0.384300000000     0.144500000000     0.201600000000     0          
A_0      C      0.996600000000     0.717400000000     0.596700000000     0          
A_3      C      0.750800000000     0.408100000000     0.999600000000     0          
A_0      C      0.462000000000     0.080500000000     0.050500000000     0          
A_1      C      0.462300000000     0.186700000000     0.706700000000     0          
A_3      C      0.910200000000     0.219000000000     0.321000000000     0          
A_2      C      0.383600000000     0.170800000000     0.727800000000     0          
A_2      C      0.360900000000     0.256000000000     0.725800000000     0          
A_2      C      0.977800000000     0.727500000000     0.979700000000     0          
A_2      C      0.890100000000     0.445100000000     0.957100000000     0          
A_2      C      0.548100000000     0.182300000000     0.043900000000     0          
A_2      C      0.438000000000     0.050800000000     0.227900000000     0          
A_0      C      0.162700000000     0.132700000000     0.898400000000     0          
A_0      C      0.579100000000     0.218800000000     0.890000000000     0          
A_2      C      0.068400000000     0.550400000000     0.613700000000     0          
A_0      C      0.873400000000     0.776100000000     0.760500000000     0          
A_3      C      0.266100000000     0.033200000000     0.778200000000     0          
A_1      C      0.726700000000     0.891100000000     0.225400000000     0          
A_1      C      0.872900000000     0.017400000000     0.836800000000     0          
A_2      C      0.976500000000     0.301400000000     0.770200000000     0          
A_3      C      0.786100000000     0.870200000000     0.637300000000     0          
A_3      C      0.879700000000     0.070200000000     0.398800000000     0          
A_2      C      0.773800000000     0.614400000000     0.279400000000     0          
A_1      C      0.649600000000     0.741900000000     0.728800000000     0          
A_0      C      0.400900000000     0.712000000000     0.662700000000     0          
A_0      C      0.089300000000     0.050900000000     0.030300000000     0          
A_3      C      0.894900000000     0.096800000000     0.635600000000     0          
A_0      C      0.010800000000     0.782100000000     0.847700000000     0          
A_0      C      0.946500000000     0.999300000000     0.903800000000     0          
A_2      C      0.465800000000     0.229900000000     0.640300000000     0          
A_2      C      0.932600000000     0.399800000000     0.740700000000     0          
A_1      C      0.300900000000     0.181700000000     0.703100000000     0          
A_0      C      0.361000000000     0.309900000000     0.605900000000     0          
A_2      C      0.416300000000     0.712400000000     0.787000000000     0          
A_2      C      0.993700000000     0.916800000000     0.791500000000     0          
A_0      C      0.096000000000     0.037600000000     0.430000000000     0          
A_3      C      0.864100000000     0.407500000000     0.996700000000     0          
A_3      C      0.315400000000     0.718600000000     0.237700000000     0          
A_2      C      0.665400000000     0.889900000000     0.539500000000     0          
A_2      C      0.641400000000     0.058600000000     0.558200000000     0          
A_3      C      0.048500000000     0.440200000000     0.207700000000     0          
A_2      C      0.856600000000     0.121500000000     0.914700000000     0          
A_0      C      0.207800000000     0.363000000000     0.918100000000     0          
A_3      C      0.119100000000     0.189100000000     0.505700000000     0          
A_1      C      0.360800000000     0.658200000000     0.092200000000     0          
A_3      C      0.630000000000     0.326600000000     0.027900000000     0          
A_2      C      0.038400000000     0.503200000000     0.646300000000     0          
A_3      C      0.146100000000     0.909800000000     0.856300000000     0          
A_1      C      0.527200000000     0.233700000000     0.791900000000     0          
A_0      C      0.902600000000     0.413100000000     0.321500000000     0          
A_3      C      0.895500000000     0.056100000000     0.006300000000     0          
A_2      C      0.810200000000     0.319700000000     0.040200000000     0          
A_1      C      0.828700000000     0.027500000000     0.142000000000     0          
A_2      C      0.361000000000     0.253600000000     0.497200000000     0          
A_0      C      0.441100000000     0.331300000000     0.029700000000     0          
A_0      C      0.695100000000     0.432200000000     0.510400000000     0          
A_0      C      0.956700000000     0.131100000000     0.786800000000     0          
A_2      C      0.062800000000     0.332100000000     0.890500000000     0          
A_3      C      0.125700000000     0.009500000000     0.392800000000     0          
A_2      C      0.059800000000     0.587100000000     0.380000000000     0          
A_0      C      0.875900000000     0.173700000000     0.326400000000     0          
A_1      C      0.834500000000     0.244600000000     0.935100000000     0          
A_1      C      0.335300000000     0.038600000000     0.993300000000     0          
A_0      C      0.607000000000     0.191900000000     0.418200000000     0          
A_3      C      0.827200000000     0.250200000000     0.673400000000     0          
A_3      C      0.830900000000     0.415800000000     0.953800000000     0          
A_1      C      0.956200000000     0.091100000000     0.887800000000     0          
A_3      C      0.226300000000     0.930700000000     0.401900000000     0          
A_2      C      0.318100000000     0.815200000000     0.285300000000     0          
A_2      C      0.114100000000     0.490400000000     0.281700000000     0          
A_1      C      0.258200000000     0.230500000000     0.705800000000     0          
A_1      C      0.056100000000     0.270900000000     0.125500000000     0          
A_3      C      0.461400000000     0.069300000000     0.528600000000     0          
A_2      C      0.182200000000     0.953300000000     0.856800000000     0          
A_2      C      0.522800000000     0.575300000000     0.199900000000     0          
A_3      C      0.773800000000     0.775500000000     0.157800000000     0          
A_2      C      0.370600000000     0.774400000000     0.396800000000     0          
A_3      C      0.471300000000     0.591200000000     0.183800000000     0          
A_3      C      0.710500000000     0.625100000000     0.402100000000     0          
A_3      C      0.049700000000     0.713700000000     0.588000000000     0          
A_2      C      0.397400000000     0.335600000000     0.489600000000     0          
A_3      C      0.364500000000     0.086400000000     0.117300000000     0          
A_2      C      0.028000000000     0.374200000000     0.492000000000     0          
A_2      C      0.371600000000     0.578100000000     0.354300000000     0          
A_2      C      0.382600000000     0.598400000000     0.364800000000     0          
A_2      C      0.370900000000     0.850700000000     0.216100000000     0          
A_1      C      0.190800000000     0.258000000000     0.964900000000     0          
A_0      C      0.947800000000     0.481300000000     0.437800000000     0          
A_3      C      0.872900000000     0.609300000000     0.096900000000     0          
A_2      C      0.960400000000     0.820600000000     0.786200000000     0          
A_0      C      0.949400000000     0.198800000000     0.737900000000     0          
A_1      C      0.682700000000     0.026500000000     0.326800000000     0          
A_1      C      0.955000000000     0.132100000000     0.111400000000     0          
A_2      C      0.083700000000     0.085400000000     0.735000000000     0          
A_3      C      0.908500000000     0.826200000000     0.565000000000     0          
A_0      C      0.242000000000     0.796200000000     0.359800000000     0          
A_1      C      0.744000000000     0.808800000000     0.251300000000     0          
A_2      C      0.049700000000     0.601000000000     0.081200000000     0          
A_1      C      0.666100000000     0.610600000000     0.702400000000     0          
A_0      C      0.274600000000     0.573200000000     0.747400000000     0          
A_2      C      0.143700000000     0.530300000000     0.795600000000     0          
A_0      C      0.328400000000     0.162900000000     0.200000000000     0          
A_0      C      0.590400000000     0.430300000000     0.172500000000     0          
A_0      C      0.014400000000     0.971300000000     0.379400000000     0          
A_0      C      0.370600000000     0.999100000000     0.075500000000     0          
A_1      C      0.169600000000     0.987000000000     0.388000000000     0          
A_3      C      0.253400000000     0.354600000000     0.463000000000     0          
A_3      C      0.365300000000     0.591800000000     0.481700000000     0          
A_3      C      0.125600000000     0.612000000000     0.675300000000     0          
A_1      C      0.895700000000     0.453400000000     0.040200000000     0          
A_3      C      0.518300000000     0.085700000000     0.478000000000     0          
A_0      C      0.988500000000     0.671400000000     0.173200000000     0          
A_1      C      0.681900000000     0.148000000000     0.632300000000     0          
A_1      C      0.811200000000     0.375000000000     0.666900000000     0          
A_2      C      0.010900000000     0.404800000000     0.886700000000     0          
A_1      C      0.078400000000     0.899000000000     0.004700000000     0          
A_1      C      0.508000000000     0.028400000000     0.153100000000     0          
A_3      C      0.508100000000     0.497900000000     0.416400000000     0          
A_3      C      0.645300000000     0.436600000000     0.562600000000     0          
A_1      C      0.362400000000     0.118400000000     0.096800000000     0          
A_1      C      0.900100000000     0.289100000000     0.464300000000     0          
A_1      C      0.882100000000     0.407700000000     0.811700000000     0          
A_2      C      0.129000000000     0.210200000000     0.944900000000     0          
A_2      C      0.598800000000     0.219300000000     0.984200000000     0          
A_0      C      0.489400000000     0.466000000000     0.561300000000     0          
A_1      C      0.196100000000     0.147200000000     0.700700000000     0          
A_2      C      0.495600000000     0.537600000000     0.349700000000     0          
A_3      C      0.962000000000     0.656000000000     0.440800000000     0          
A_2      C      0.395600000000     0.604200000000     0.548100000000     0          
A_3      C      0.020500000000     0.659500000000     0.553500000000     0          
A_2      C      0.711700000000     0.780600000000     0.077400000000     0          
A_0      C      0.678500000000     0.106100000000     0.930300000000     0          
A_3      C      0.494500000000     0.535100000000     0.002100000000     0          
A_0      C      0.659700000000     0.759600000000     0.751400000000     0          
A_0      C      0.435800000000     0.585300000000     0.322000000000     0          
A_0      C      0.835400000000     0.352800000000     0.309700000000     0          
A_3      C      0.101700000000     0.840200000000     0.559000000000     0          
A_0      C      0.612300000000     0.214800000000     0.606000000000     0          
A_1      C      0.526100000000     0.094500000000     0.115400000000     0          
A_3      C      0.041000000000     0.185800000000     0.658200000000     0          
A_0      C      0.320400000000     0.349400000000     0.971600000000     0          
A_1      C      0.070000000000     0.984000000000     0.732200000000     0          
A_1      C      0.744800000000     0.970500000000     0.283800000000     0          
A_2      C      0.764900000000     0.646900000000     0.460600000000     0          
A_2      C      0.814600000000     0.948400000000     0.625100000000     0          
A_3      C      0.671500000000     0.423900000000     0.214100000000     0          
A_2      C      0.536800000000     0.588700000000     0.324700000000     0          
A_0      C      0.400900000000     0.426600000000     0.296000000000     0          
A_3      C      0.207500000000     0.475600000000     0.904800000000     0          
A_2      C      0.285800000000     0.183300000000     0.980400000000     0          
A_0      C      0.241900000000     0.552900000000     0.226500000000     0          
A_3      C      0.388800000000     0.996900000000     0.765800000000     0          
A_1      C      0.249800000000     0.269600000000     0.845400000000     0          
A_1      C      0.056600000000     0.799700000000     0.487400000000     0          
A_2      C      0.128300000000     0.312900000000     0.429100000000     0          
A_0      C      0.582000000000     0.300500000000     0.757400000000     0          
A_0      C      0.261800000000     0.508400000000     0.898100000000     0          
A_2      C      0.455400000000     0.600200000000     0.300900000000     0          
A_2      C      0.890800000000     0.782600000000     0.476100000000     0          
A_0      C      0.046700000000     0.536900000000     0.002200000000     0          
A_0      C      0.674600000000     0.797400000000     0.776400000000     0          
A_2      C      0.135400000000     0.050100000000     0.038000000000     0          
A_0      C      0.406200000000     0.108700000000     0.720300000000     0          
A_3      C      0.868900000000     0.317700000000     0.601100000000     0          
A_3      C      0.470700000000     0.021100000000     0.953800000000     0          
A_3      C      0.990500000000     0.511100000000     0.684900000000     0          
A_0      C      0.141900000000     0.826000000000     0.956500000000     0          
A_0      C      0.590200000000     0.627500000000     0.417300000000     0          
A_1      C      0.665200000000     0.111000000000     0.125100000000     0          
A_2      C      0.335700000000     0.727500000000     0.542800000000     0          
A_2      C      0.924300000000     0.079700000000     0.861800000000     0          
A_3      C      0.721100000000     0.095900000000     0.376600000000     0          
A_1      C      0.018500000000     0.590800000000     0.002200000000     0          
A_2      C      0.714100000000     0.719400000000     0.947800000000     0          
A_1      C      0.460500000000     0.696000000000     0.901300000000     0          
A_2      C      0.580900000000     0.665500000000     0.694300000000     0          
A_2      C      0.662300000000     0.912800000000     0.165300000000     0          
A_1      C      0.459400000000     0.510000000000     0.620900000000     0          
A_0      C      0.076500000000     0.455700000000     0.373500000000     0          
A_3      C      0.448300000000     0.542700000000     0.462000000000     0          
A_0      C      0.741100000000     0.389200000000     0.711400000000     0          
A_0      C      0.889200000000     0.168900000000     0.430500000000     0          
A_0      C      0.455200000000     0.098400000000     0.902900000000     0          
A_0      C      0.791500000000     0.788600000000     0.179300000000     0          
A_1      C      0.782100000000     0.059200000000     0.390200000000     0          
A_2      C      0.670900000000     0.360900000000     0.048500000000     0          
A_3      C      0.221900000000     0.989700000000     0.065400000000     0          
A_3      C      0.006600000000     0.437000000000     0.917800000000     0          
A_2      C      0.973300000000     0.933500000000     0.360500000000     0          
A_0      C      0.602600000000     0.559300000000     0.422600000000     0          
A_0      C      0.248600000000     0.687700000000     0.847700000000     0          
A_0      C      0.417000000000     0.692300000000     0.463900000000     0          
A_3      C      0.914300000000     0.955500000000     0.297100000000     0          
A_3      C      0.960100000000     0.369800000000     0.664900000000     0          
A_1      C      0.169500000000     0.333000000000     0.131900000000     0          
A_1      C      0.534800000000     0.270100000000     0.309500000000     0          
A_0      C      0.468800000000     0.450600000000     0.511900000000     0          
A_1      C      0.777700000000     0.706900000000     0.213500000000     0          
A_2      C      0.209700000000     0.208400000000     0.624300000000     0          
A_0      C      0.930100000000     0.106800000000     0.483900000000     0          
A_2      C      0.242300000000     0.316800000000     0.066200000000     0          
A_0      C      0.381700000000     0.766700000000     0.072400000000     0          
A_0      C      0.900200000000     0.229700000000     0.800300000000     0          
A_3      C      0.383600000000     0.341200000000     0.607100000000     0          
A_3      C      0.698700000000     0.880400000000     0.591000000000     0          
A_1      C      0.400500000000     0.905500000000     0.097900000000     0          
A_2      C      0.037600000000     0.882600000000     0.725600000000     0          
A_2      C      0.735800000000     0.998400000000     0.477600000000     0          
A_1      C      0.892400000000     0.305500000000     0.555300000000     0          
A_3      C      0.594600000000     0.040300000000     0.654400000000     0          
A_0      C      0.481700000000     0.116700000000     0.371000000000     0          
A_0      C      0.008000000000     0.782600000000     0.599900000000     0          
A_1      C      0.697800000000     0.440700000000     0.720500000000     0          
A_1      C      0.239200000000     0.534400000000     0.794300000000     0          
A_2      C      0.814600000000     0.260800000000     0.571500000000     0          
A_3      C      0.378300000000     0.644300000000     0.672100000000     0          
A_0      C      0.203600000000     0.038200000000     0.012400000000     0          
A_1      C      0.093000000000     0.117600000000     0.235600000000     0          
A_2      C      0.337600000000     0.673200000000     0.723300000000     0          
A_0      C      0.599500000000     0.899900000000     0.640600000000     0          
A_1      C      0.491400000000     0.179800000000     0.292000000000     0          
A_3      C      0.866800000000     0.237900000000     0.083400000000     0          
A_1      C      0.215800000000     0.546200000000     0.300900000000     0          
A_2      C      0.497500000000     0.823500000000     0.304500000000     0          
A_3      C      0.909400000000     0.584800000000     0.834500000000     0          
A_3      C      0.337700000000     0.113600000000     0.255000000000     0          
A_1      C      0.613000000000     0.739100000000     0.403000000000     0          
A_2      C      0.108300000000     0.303800000000     0.139000000000     0          
A_1      C      0.557000000000     0.916300000000     0.564800000000     0          
A_1      C      0.952800000000     0.012500000000     0.365700000000     0          
A_0      C      0.311400000000     0.972800000000     0.567000000000     0          
A_3      C      0.865500000000     0.065400000000     0.733200000000     0          
A_0      C      0.533000000000     0.799700000000     0.492100000000     0          
A_3      C      0.983600000000     0.296600000000     0.135800000000     0          
A_3      C      0.618000000000     0.933500000000     0.545500000000     0          
A_3      C      0.049200000000     0.987700000000     0.562300000000     0          
A_3      C      0.662600000000     0.067700000000     0.773300000000     0          
A_3      C      0.969500000000     0.155200000000     0.676900000000     0          
A_3      C      0.718700000000     0.485200000000     0.984200000000     0          
A_2      C      0.466100000000     0.290200000000     0.365600000000     0          
A_1      C      0.982500000000     0.013800000000     0.597800000000     0          
A_0      C      0.447400000000     0.682100000000     0.733600000000     0          
A_2      C      0.918100000000     0.277500000000     0.732100000000     0          
A_1      C      0.175000000000     0.120100000000     0.832900000000     0          
A_1      C      0.673100000000     0.675000000000     0.039600000000     0          
A_2      C      0.742400000000     0.350000000000     0.424900000000     0          
A_1      C      0.811800000000     0.329600000000     0.500200000000     0          
A_0      C      0.852400000000     0.253800000000     0.578500000000     0          
A_3      C      0.796500000000     0.814600000000     0.857500000000     0          
A_3      C      0.015600000000     0.627800000000     0.526000000000     0          
A_2      C      0.924400000000     0.816300000000     0.376800000000     0          
A_0      C      0.136100000000     0.192100000000     0.640200000000     0          
A_1      C      0.398600000000     0.550700000000     0.929300000000     0          
A_2      C      0.435000000000     0.765400000000     0.407600000000     0          
A_2      C      0.555800000000     0.903800000000     0.351000000000     0          
A_0      C      0.940100000000     0.226900000000     0.478100000000     0          
A_3      C      0.541700000000     0.318800000000     0.413800000000     0          
A_3      C      0.215800000000     0.178500000000     0.250500000000     0          
A_0      C      0.377600000000     0.652400000000     0.651500000000     0          
A_3      C      0.892000000000     0.511800000000     0.703100000000     0          
A_3      C      0.703400000000     0.495600000000     0.038800000000     0          
A_0      C      0.592600000000     0.184300000000     0.707100000000     0          
A_0      C      0.701500000000     0.658800000000     0.872800000000     0          
A_0      C      0.454000000000     0.337200000000     0.243800000000     0          
A_2      C      0.450400000000     0.095600000000     0.433400000000     0          
A_0      C      0.016600000000     0.806000000000     0.064900000000     0          
A_2      C      0.893200000000     0.445300000000     0.400800000000     0          
A_0      C      0.631400000000     0.533100000000     0.612800000000     0          
A_1      C      0.144600000000     0.160500000000     0.728400000000     0          
A_2      C      0.225200000000     0.965700000000     0.672000000000     0          
A_0      C      0.029700000000     0.464600000000     0.994200000000     0          
A_2      C      0.957000000000     0.970500000000     0.208000000000     0          
A_3      C      0.990200000000     0.786300000000     0.974400000000     0          
A_0      C      0.818600000000     0.059200000000     0.011100000000     0          
A_0      C      0.841300000000     0.159200000000     0.613600000000     0          
A_2      C      0.288300000000     0.339200000000     0.223700000000     0          
A_3      C      0.759400000000     0.282900000000     0.082500000000     0          
A_2      C      0.906900000000     0.738900000000     0.200700000000     0          
A_1      C      0.779700000000     0.951100000000     0.283200000000     0          
A_1      C      0.123700000000     0.322700000000     0.771200000000     0          
A_3      C      0.590700000000     0.921300000000     0.426100000000     0          
A_2      C      0.363500000000     0.802300000000     0.788000000000     0          
A_2      C      0.754300000000     0.179000000000     0.564500000000     0          
A_2      C      0.325300000000     0.208600000000     0.790900000000     0          
A_2      C      0.349500000000     0.216500000000     0.067200000000     0          
A_2      C      0.103000000000     0.690400000000     0.420100000000     0          
A_2      C      0.829400000000     0.146100000000     0.417000000000     0          
A_0      C      0.462600000000     0.106700000000     0.088900000000     0          
A_0      C      0.952800000000     0.480700000000     0.376600000000     0          
A_0      C      0.049300000000     0.717200000000     0.839000000000     0          
A_3      C      0.575400000000     0.594000000000     0.477500000000     0          
A_2      C      0.040000000000     0.027100000000     0.468200000000     0          
A_1      C      0.590200000000     0.428700000000     0.084800000000     0          
A_1      C      0.138300000000     0.034400000000     0.536200000000     0          
A_3      C      0.566800000000     0.133900000000     0.944800000000     0          
A_1      C      0.322500000000     0.141300000000     0.514800000000     0          
A_2      C      0.587200000000     0.320700000000     0.680600000000     0          
A_3      C      0.888700000000     0.707700000000     0.682400000000     0          
A_2      C      0.562500000000     0.283800000000     0.463700000000     0          
A_0      C      0.812500000000     0.938700000000     0.249600000000     0          
A_0      C      0.977100000000     0.217900000000     0.302200000000     0          
A_1      C      0.394300000000     0.792000000000     0.836000000000     0          
A_1      C      0.835700000000     0.044300000000     0.508200000000     0          
A_0      C      0.883300000000     0.044500000000     0.548200000000     0          
A_1      C      0.361600000000     0.412300000000     0.350200000000     0          
A_1      C      0.809100000000     0.166100000000     0.914900000000     0          
A_1      C      0.236400000000     0.591700000000     0.554300000000     0          
A_2      C      0.943100000000     0.745400000000     0.217500000000     0          
A_3      C      0.292700000000     0.149800000000     0.195700000000     0          
A_1      C      0.447000000000     0.188300000000     0.112100000000     0          
A_3      C      0.943700000000     0.430900000000     0.321400000000     0          
A_0      C      0.724600000000     0.245300000000     0.608500000000     0          
A_1      C      0.193600000000     0.074700000000     0.929000000000     0          
A_0      C      0.679800000000     0.653400000000     0.046000000000     0          
A_3      C      0.411900000000     0.627300000000     0.249400000000     0          
A_3      C      0.893400000000     0.649900000000     0.961700000000     0          
A_1      C      0.737300000000     0.983500000000     0.096000000000     0          
A_1      C      0.150900000000     0.648000000000     0.331200000000     0          
A_2      C      0.023400000000     0.481800000000     0.106900000000     0          
A_3      C      0.554200000000     0.278300000000     0.338000000000     0          
A_0      C      0.311100000000     0.174200000000     0.161900000000     0          
A_1      C      0.041600000000     0.301200000000     0.772100000000     0          
A_0      C      0.032800000000     0.632000000000     0.206200000000     0          
A_1      C      0.686600000000     0.905400000000     0.575100000000     0          
A_0      C      0.559200000000     0.378500000000     0.242000000000     0          
A_3      C      0.024200000000     0.516200000000     0.814900000000     0          
A_1      C      0.774700000000     0.219300000000     0.228800000000     0          
A_2      C      0.292900000000     0.040800000000     0.998200000000     0          
A_1      C      0.025000000000     0.536000000000     0.741900000000     0          
A_0      C      0.542900000000     0.367100000000     0.949200000000     0          
A_1      C      0.835800000000     0.448200000000     0.005900000000     0          
A_2      C      0.430800000000     0.501100000000     0.888700000000     0          
A_1      C      0.393100000000     0.423800000000     0.416800000000     0          
A_2      C      0.763500000000     0.531400000000     0.511500000000     0          
A_2      C      0.890800000000     0.850000000000     0.889400000000     0          
A_3      C      0.604100000000     0.744200000000     0.103500000000     0          
A_2      C      0.450100000000     0.239200000000     0.917100000000     0          
A_0      C      0.159700000000     0.664900000000     0.710500000000     0          
A_1      C      0.150800000000     0.374900000000     0.424800000000     0          
A_1      C      0.953200000000     0.554500000000     0.079600000000     0          
A_0      C      0.957600000000     0.220000000000     0.230800000000     0          
A_3      C      0.919200000000     0.419600000000     0.368800000000     0          
A_3      C      0.070000000000     0.673000000000     0.810900000000     0          
A_1      C      0.649000000000     0.625400000000     0.668800000000     0          
A_1      C      0.823300000000     0.792400000000     0.380800000000     0          
A_3      C      0.956100000000     0.588800000000     0.362400000000     0          
A_0      C      0.544500000000     0.868800000000     0.364200000000     0          
A_2      C      0.487600000000     0.435500000000     0.607700000000     0          
A_2      C      0.788300000000     0.191200000000     0.533400000000     0          
A_1      C      0.050100000000     0.653000000000     0.113500000000     0          
A_2      C      0.945900000000     0.767200000000     0.940600000000     0          
A_0      C      0.536100000000     0.621900000000     0.096700000000     0          
A_0      C      0.970600000000     0.910400000000     0.175100000000     0          
A_2      C      0.062600000000     0.075800000000     0.526600000000     0          
A_3      C      0.234400000000     0.221200000000     0.783100000000     0          
A_3      C      0.310300000000     0.293900000000     0.263700000000     0          
A_3      C      0.959800000000     0.313900000000     0.309700000000     0          
A_0      C      0.916800000000     0.766400000000     0.693600000000     0          
A_0      C      0.734400000000     0.009100000000     0.416600000000     0          
A_3      C      0.278600000000     0.129500000000     0.396900000000     0          
A_0      C      0.274000000000     0.501500000000     0.700600000000     0          
A_3      C      0.391500000000     0.433500000000     0.833700000000     0          
A_3      C      0.241100000000     0.633000000000     0.403900000000     0          
A_3      C      0.388500000000     0.590900000000     0.454200000000     0          
A_2      C      0.202800000000     0.133100000000     0.899300000000     0          
A_0      C      0.806900000000     0.282600000000     0.043000000000     0          
A_0      C      0.685200000000     0.053900000000     0.046700000000     0          
A_3      C      0.328400000000     0.843100000000     0.873000000000     0          
A_3      C      0.241400000000     0.842600000000     0.883700000000     0          
A_2      C      0.959900000000     0.447700000000     0.429900000000     0          
A_0      C      0.548200000000     0.804800000000     0.518500000000     0          
A_0      C      0.386300000000     0.599900000000     0.903300000000     0          
A_0      C      0.727200000000     0.750400000000     0.112400000000     0          
A_3      C      0.727500000000     0.308600000000     0.020800000000     0          
A_0      C      0.027600000000     0.631100000000     0.471500000000     0          
A_3      C      0.257700000000     0.778300000000     0.152400000000     0          
A_0      C      0.089500000000     0.830900000000     0.809400000000     0          
A_3      C      0.909200000000     0.013700000000     0.264100000000     0          
A_2      C      0.209100000000     0.689400000000     0.868100000000     0          
A_1      C      0.724200000000     0.885100000000     0.546400000000     0          
A_3      C      0.757800000000     0.439300000000     0.114700000000     0          
A_0      C      0.558600000000     0.225600000000     0.402400000000     0          
A_1      C      0.302600000000     0.542500000000     0.569700000000     0          
A_1      C      0.710800000000     0.562900000000     0.850900000000     0          
A_2      C      0.439600000000     0.232800000000     0.429600000000     0          
A_3      C      0.074600000000     0.254000000000     0.520400000000     0          
A_0      C      0.117400000000     0.191500000000     0.003500000000     0          
A_1      C      0.490300000000     0.736700000000     0.783300000000     0          
A_2      C      0.315800000000     0.815500000000     0.840900000000     0          
A_0      C      0.825000000000     0.489500000000     0.851600000000     0          
A_2      C      0.968200000000     0.512700000000     0.798400000000     0          
A_3      C      0.334900000000     0.205400000000     0.186200000000     0          
A_1      C      0.340300000000     0.895400000000     0.808100000000     0          
A_2      C      0.128500000000     0.236800000000     0.410400000000     0          
A_3      C      0.914600000000     0.261900000000     0.539900000000     0          
A_3      C      0.216600000000     0.538100000000     0.396600000000     0          
A_3      C      0.317800000000     0.167200000000     0.476300000000     0          
A_3      C      0.313100000000     0.083900000000     0.590100000000     0          
A_3      C      0.255700000000     0.576300000000     0.828600000000     0          
A_0      C      0.630200000000     0.476300000000     0.248800000000     0          
A_1      C      0.301400000000     0.270600000000     0.387700000000     0          
A_2      C      0.203900000000     0.926100000000     0.217000000000     0          
A_0      C      0.896000000000     0.547400000000     0.292500000000     0          
A_1      C      0.016000000000     0.617300000000     0.993700000000     0          
A_0      C      0.259200000000     0.878300000000     0.455100000000     0          
A_0      C      0.328500000000     0.174500000000     0.259900000000     0          
A_1      C      0.161100000000     0.684000000000     0.034600000000     0          
A_0      C      0.713600000000     0.606600000000     0.289600000000     0          
A_3      C      0.245400000000     0.450900000000     0.309300000000     0          
A_3      C      0.227800000000     0.766900000000     0.595400000000     0          
A_3      C      0.758800000000     0.821000000000     0.692400000000     0          
A_0      C      0.152700000000     0.660400000000     0.811900000000     0          
A_1      C      0.034700000000     0.272300000000     0.876800000000     0          
A_3      C      0.663700000000     0.355700000000     0.318700000000     0          
A_0      C      0.875800000000     0.148400000000     0.532000000000     0          
A_2      C      0.850700000000     0.773100000000     0.666100000000     0          
A_3      C      0.227900000000     0.838100000000     0.991500000000     0          
A_3      C      0.105100000000     0.588600000000     0.990500000000     0          
A_3      C      0.425500000000     0.616500000000     0.585500000000     0          
A_1      C      0.933200000000     0.957800000000     0.080400000000     0          
A_1      C      0.075900000000     0.892700000000     0.292200000000     0          
A_3      C      0.677500000000     0.469800000000     0.250400000000     0          
A_1      C      0.089700000000     0.950700000000     0.763000000000     0          
A_3      C      0.925500000000     0.650800000000     0.946400000000     0          
A_0      C      0.327400000000     0.651100000000     0.823400000000     0          
A_1      C      0.459600000000     0.063500000000     0.926600000000     0          


